[3J[H[2Jgem5 Simulator System.  http://gem5.org
gem5 is copyrighted software; use the --copyright option for details.

gem5 compiled Nov  2 2017 01:41:28
gem5 started Nov  2 2017 01:42:28
gem5 executing on cse-HP-ProDesk-600-G3-SFF, pid 21706
command line: ./build/X86/gem5.opt --stats-file=mcf-hmmer_bta_p.txt ./configs/example/se.py -n 2 --caches --l2cache --mem-size=4GB --mem-channels=1 --mem-ranks=8 --cpu-type=DerivO3CPU -F 250000 -I 250000 --bench mcf-hmmer

executable= /home/prakhar/SPEC2006_X86/binaries/mcf 
inputs_dir = /home/prakhar/SPEC2006_X86/data/mcf/ref/input 
outputs_dir = /home/prakhar/SPEC2006_X86/data/mcf/ref/output 
executable= /home/prakhar/SPEC2006_X86/binaries/hmmer 
inputs_dir = /home/prakhar/SPEC2006_X86/data/hmmer/ref/input 
outputs_dir = /home/prakhar/SPEC2006_X86/data/hmmer/ref/output 
Global frequency set at 1000000000000 ticks per second
warn: DRAM device capacity (32768 Mbytes) does not match the address range assigned (4096 Mbytes)
0: system.remote_gdb.listener: listening for remote gdb #0 on port 7000
0: system.remote_gdb.listener: listening for remote gdb #1 on port 7001
Switch at instruction count:250000
info: Entering event queue @ 0.  Starting simulation...
info: Increasing stack size by one page.
hmmcalibrate -- calibrate HMM search statistics
HMMER 2.3 (May 2003)
Copyright (C) 1992-2003 HHMI/Washington University School of Medicine
Freely distributed under the GNU General Public License (GPL)
- - - - - - - - - - - - - - - - - - - - - - - - - - - - - - - - - - - -
HMM file:                 /home/prakhar/SPEC2006_X86/data/hmmer/ref/input/retro.hmm
Length distribution mean: 500
Length distribution s.d.: 350
Number of samples:        500000
random seed:              0
histogram(s) saved to:    [not saved]
- - - - - - - - - - - - - - - - - - - - - - - - - - - - - - - -

Switched CPUS @ tick 288031000
switching cpus
info: Entering event queue @ 288031000.  Starting simulation...
**** REAL SIMULATION ****
info: Entering event queue @ 288032500.  Starting simulation...
info: Epoch start = 288098510, turn = 0, subTurn = 1
info: Processing req at 288098510
info: no packet
info: nextReqEvent scheduled@288148510
info: no packet
info: Epoch start = 288198510, turn = 0, subTurn = 2
info: Processing req at 288198510
info: Timing access to addr 628480, rank/bank/row 1 4 1
info: activation difference: 0
info: Activate at tick 288198510
info: Precharging bank 4, rank 1 at tick 288233510, now got 0 active
info: nextReqEvent scheduled@288248510
info: Timing access to addr 2211712, rank/bank/row 1 5 4
info: activation difference: 0
info: Epoch start = 288298510, turn = 0, subTurn = 0
info: Processing req at 288298510
info: Timing access to addr 264384, rank/bank/row 4 0 0
info: activation difference: 0
info: Activate at tick 288298510
info: Precharging bank 0, rank 4 at tick 288333510, now got 0 active
info: nextReqEvent scheduled@288348510
info: Timing access to addr 926464, rank/bank/row 6 1 1
info: activation difference: 0
info: Epoch start = 288398510, turn = 0, subTurn = 1
info: Processing req at 288398510
info: Timing access to addr 42944, rank/bank/row 0 5 0
info: activation difference: 0
info: Activate at tick 288398510
info: Precharging bank 5, rank 0 at tick 288433510, now got 0 active
info: nextReqEvent scheduled@288448510
info: Timing access to addr 1079744, rank/bank/row 0 3 2
info: activation difference: 0
info: Epoch start = 288498510, turn = 0, subTurn = 2
info: Processing req at 288498510
info: no packet
info: nextReqEvent scheduled@288548510
info: no packet
info: Epoch start = 288598510, turn = 0, subTurn = 0
info: Processing req at 288598510
info: Timing access to addr 264960, rank/bank/row 4 0 0
info: activation difference: 0
info: Activate at tick 288598510
info: Precharging bank 0, rank 4 at tick 288633510, now got 0 active
info: nextReqEvent scheduled@288648510
info: Timing access to addr 1179456, rank/bank/row 1 7 2
info: activation difference: 0
info: Epoch start = 288698510, turn = 0, subTurn = 1
info: Processing req at 288698510
info: Timing access to addr 216384, rank/bank/row 3 2 0
info: activation difference: 0
info: Activate at tick 288698510
info: Precharging bank 2, rank 3 at tick 288733510, now got 0 active
info: nextReqEvent scheduled@288748510
info: no packet
info: Epoch start = 288798510, turn = 0, subTurn = 2
info: Processing req at 288798510
info: no packet
info: nextReqEvent scheduled@288848510
info: no packet
info: Epoch start = 288898510, turn = 0, subTurn = 0
info: Processing req at 288898510
info: Timing access to addr 265664, rank/bank/row 4 0 0
info: activation difference: 0
info: Activate at tick 288898510
info: Precharging bank 0, rank 4 at tick 288933510, now got 0 active
info: nextReqEvent scheduled@288948510
info: Timing access to addr 1179264, rank/bank/row 1 7 2
info: activation difference: 0
info: Epoch start = 288998510, turn = 0, subTurn = 1
info: Processing req at 288998510
info: Timing access to addr 217088, rank/bank/row 3 2 0
info: activation difference: 0
info: Activate at tick 288998510
info: Precharging bank 2, rank 3 at tick 289033510, now got 0 active
info: nextReqEvent scheduled@289048510
info: no packet
info: Epoch start = 289098510, turn = 0, subTurn = 2
info: Processing req at 289098510
info: no packet
info: nextReqEvent scheduled@289148510
info: no packet
info: Epoch start = 289198510, turn = 0, subTurn = 0
info: Processing req at 289198510
info: Timing access to addr 267584, rank/bank/row 4 0 0
info: activation difference: 0
info: Activate at tick 289198510
info: Precharging bank 0, rank 4 at tick 289233510, now got 0 active
info: nextReqEvent scheduled@289248510
info: no packet
info: Epoch start = 289298510, turn = 0, subTurn = 1
info: Processing req at 289298510
info: Timing access to addr 2640448, rank/bank/row 0 2 5
info: activation difference: 1
info: Activate at tick 289298511
info: Precharging bank 2, rank 0 at tick 289333511, now got 0 active
info: nextReqEvent scheduled@289348510
info: no packet
info: Epoch start = 289398510, turn = 0, subTurn = 2
info: Processing req at 289398510
info: Timing access to addr 5254720, rank/bank/row 0 1 10
info: activation difference: 0
info: Activate at tick 289398510
info: Precharging bank 1, rank 0 at tick 289433510, now got 0 active
info: nextReqEvent scheduled@289448510
info: no packet
info: Epoch start = 289498510, turn = 0, subTurn = 0
info: Processing req at 289498510
info: Timing access to addr 269376, rank/bank/row 4 0 0
info: activation difference: 0
info: Activate at tick 289498510
info: Precharging bank 0, rank 4 at tick 289533510, now got 0 active
info: nextReqEvent scheduled@289548510
info: no packet
info: Epoch start = 289598510, turn = 0, subTurn = 1
info: Processing req at 289598510
info: Timing access to addr 2640512, rank/bank/row 0 2 5
info: activation difference: 0
info: Activate at tick 289598510
info: Precharging bank 2, rank 0 at tick 289633510, now got 0 active
info: nextReqEvent scheduled@289648510
info: no packet
info: Epoch start = 289698510, turn = 0, subTurn = 2
info: Processing req at 289698510
info: no packet
info: nextReqEvent scheduled@289748510
info: no packet
info: Epoch start = 289798510, turn = 0, subTurn = 0
info: Processing req at 289798510
info: Timing access to addr 263296, rank/bank/row 4 0 0
info: activation difference: 0
info: Activate at tick 289798510
info: Precharging bank 0, rank 4 at tick 289833510, now got 0 active
info: nextReqEvent scheduled@289848510
info: Timing access to addr 1179520, rank/bank/row 1 7 2
info: activation difference: 1
info: Epoch start = 289898510, turn = 0, subTurn = 1
info: Processing req at 289898510
info: no packet
info: nextReqEvent scheduled@289948510
info: no packet
info: Epoch start = 289998510, turn = 0, subTurn = 2
info: Processing req at 289998510
info: no packet
info: nextReqEvent scheduled@290048510
info: no packet
info: Epoch start = 290098510, turn = 0, subTurn = 0
info: Processing req at 290098510
info: Timing access to addr 7744, rank/bank/row 0 0 0
info: activation difference: 0
info: Activate at tick 290098510
info: Precharging bank 0, rank 0 at tick 290133510, now got 0 active
info: nextReqEvent scheduled@290148510
info: Epoch start = 290198510, turn = 0, subTurn = 1
info: Processing req at 290198510
info: nextReqEvent scheduled@290248510
info: no packet
info: Epoch start = 290298510, turn = 0, subTurn = 2
info: Processing req at 290298510
info: no packet
info: nextReqEvent scheduled@290348510
info: Timing access to addr 1226944, rank/bank/row 2 5 2
info: activation difference: 0
info: Epoch start = 290398510, turn = 0, subTurn = 0
info: Processing req at 290398510
info: Timing access to addr 11102912, rank/bank/row 1 3 21
info: activation difference: 0
info: Activate at tick 290398510
info: Precharging bank 3, rank 1 at tick 290433510, now got 0 active
info: nextReqEvent scheduled@290448510
info: Timing access to addr 1760112576, rank/bank/row 1 1 3357
info: activation difference: 0
info: Epoch start = 290498510, turn = 0, subTurn = 1
info: Processing req at 290498510
info: no packet
info: nextReqEvent scheduled@290548510
info: no packet
info: Epoch start = 290598510, turn = 0, subTurn = 2
info: Processing req at 290598510
info: Timing access to addr 80576, rank/bank/row 1 1 0
info: activation difference: 0
info: Activate at tick 290598510
info: Precharging bank 1, rank 1 at tick 290633510, now got 0 active
info: nextReqEvent scheduled@290648510
info: no packet
info: Epoch start = 290698510, turn = 0, subTurn = 0
info: Processing req at 290698510
info: Timing access to addr 11102976, rank/bank/row 1 3 21
info: activation difference: 0
info: Activate at tick 290698510
info: Precharging bank 3, rank 1 at tick 290733510, now got 0 active
info: nextReqEvent scheduled@290748510
info: activation difference: 0
info: Epoch start = 290798510, turn = 0, subTurn = 1
info: Processing req at 290798510
info: nextReqEvent scheduled@290848510
info: no packet
info: Epoch start = 290898510, turn = 0, subTurn = 2
info: Processing req at 290898510
info: no packet
info: nextReqEvent scheduled@290948510
info: no packet
info: Epoch start = 290998510, turn = 0, subTurn = 0
info: Processing req at 290998510
info: Timing access to addr 11103040, rank/bank/row 1 3 21
info: activation difference: 0
info: Activate at tick 290998510
info: Precharging bank 3, rank 1 at tick 291033510, now got 0 active
info: nextReqEvent scheduled@291048510
info: no packet
info: Epoch start = 291098510, turn = 0, subTurn = 1
info: Processing req at 291098510
info: Timing access to addr 19648, rank/bank/row 0 2 0
info: activation difference: 1
info: Activate at tick 291098511
info: Precharging bank 2, rank 0 at tick 291133511, now got 0 active
info: nextReqEvent scheduled@291148510
info: Epoch start = 291198510, turn = 0, subTurn = 2
info: Processing req at 291198510
info: no packet
info: nextReqEvent scheduled@291248510
info: Timing access to addr 1198080, rank/bank/row 2 2 2
info: activation difference: 1
info: Epoch start = 291298510, turn = 0, subTurn = 0
info: Processing req at 291298510
info: Timing access to addr 896, rank/bank/row 0 0 0
info: activation difference: 1
info: Activate at tick 291298511
info: Precharging bank 0, rank 0 at tick 291333511, now got 0 active
info: nextReqEvent scheduled@291348510
info: no packet
info: Epoch start = 291398510, turn = 0, subTurn = 1
info: Processing req at 291398510
info: Timing access to addr 89216, rank/bank/row 1 2 0
info: activation difference: 1
info: Activate at tick 291398511
info: Precharging bank 2, rank 1 at tick 291433511, now got 0 active
info: nextReqEvent scheduled@291448510
info: no packet
info: Epoch start = 291498510, turn = 0, subTurn = 2
info: Processing req at 291498510
info: no packet
info: nextReqEvent scheduled@291548510
info: no packet
info: Epoch start = 291598510, turn = 0, subTurn = 0
info: Processing req at 291598510
info: Timing access to addr 264512, rank/bank/row 4 0 0
info: activation difference: 1
info: Activate at tick 291598511
info: Precharging bank 0, rank 4 at tick 291633511, now got 0 active
info: nextReqEvent scheduled@291648510
info: no packet
info: Epoch start = 291698510, turn = 0, subTurn = 1
info: Processing req at 291698510
info: Timing access to addr 48448, rank/bank/row 0 5 0
info: activation difference: 0
info: Activate at tick 291698510
info: Precharging bank 5, rank 0 at tick 291733510, now got 0 active
info: nextReqEvent scheduled@291748510
info: no packet
info: Epoch start = 291798510, turn = 0, subTurn = 2
info: Processing req at 291798510
info: no packet
info: nextReqEvent scheduled@291848510
info: no packet
info: Epoch start = 291898510, turn = 0, subTurn = 0
info: Processing req at 291898510
info: Timing access to addr 263104, rank/bank/row 4 0 0
info: activation difference: 0
info: Activate at tick 291898510
info: Precharging bank 0, rank 4 at tick 291933510, now got 0 active
info: nextReqEvent scheduled@291948510
info: no packet
info: Epoch start = 291998510, turn = 0, subTurn = 1
info: Processing req at 291998510
info: Timing access to addr 281536, rank/bank/row 4 2 0
info: activation difference: 0
info: Activate at tick 291998510
info: Precharging bank 2, rank 4 at tick 292033510, now got 0 active
info: nextReqEvent scheduled@292048510
info: no packet
info: Epoch start = 292098510, turn = 0, subTurn = 2
info: Processing req at 292098510
info: no packet
info: nextReqEvent scheduled@292148510
info: no packet
info: Epoch start = 292198510, turn = 0, subTurn = 0
info: Processing req at 292198510
info: Timing access to addr 267648, rank/bank/row 4 0 0
info: activation difference: 0
info: Activate at tick 292198510
info: Precharging bank 0, rank 4 at tick 292233510, now got 0 active
info: nextReqEvent scheduled@292248510
info: no packet
info: Epoch start = 292298510, turn = 0, subTurn = 1
info: Processing req at 292298510
info: Timing access to addr 281984, rank/bank/row 4 2 0
info: activation difference: 0
info: Activate at tick 292298510
info: Precharging bank 2, rank 4 at tick 292333510, now got 0 active
info: nextReqEvent scheduled@292348510
info: Timing access to addr 2481408, rank/bank/row 5 6 4
info: activation difference: 0
info: Epoch start = 292398510, turn = 0, subTurn = 2
info: Processing req at 292398510
info: no packet
info: nextReqEvent scheduled@292448510
info: no packet
info: Epoch start = 292498510, turn = 0, subTurn = 0
info: Processing req at 292498510
info: Timing access to addr 267712, rank/bank/row 4 0 0
info: activation difference: 1
info: Activate at tick 292498511
info: Precharging bank 0, rank 4 at tick 292533511, now got 0 active
info: nextReqEvent scheduled@292548510
info: no packet
info: Epoch start = 292598510, turn = 0, subTurn = 1
info: Processing req at 292598510
info: Timing access to addr 217152, rank/bank/row 3 2 0
info: activation difference: 1
info: Activate at tick 292598511
info: Precharging bank 2, rank 3 at tick 292633511, now got 0 active
info: nextReqEvent scheduled@292648510
info: no packet
info: Epoch start = 292698510, turn = 0, subTurn = 2
info: Processing req at 292698510
info: Timing access to addr 5254784, rank/bank/row 0 1 10
info: activation difference: 1
info: Activate at tick 292698511
info: Precharging bank 1, rank 0 at tick 292733511, now got 0 active
info: nextReqEvent scheduled@292748510
info: no packet
info: Epoch start = 292798510, turn = 0, subTurn = 0
info: Processing req at 292798510
info: no packet
info: nextReqEvent scheduled@292848510
info: Timing access to addr 931904, rank/bank/row 6 1 1
info: activation difference: 1
info: Epoch start = 292898510, turn = 0, subTurn = 1
info: Processing req at 292898510
info: activation difference: 0
info: Activate at tick 292898510
info: Precharging bank 2, rank 0 at tick 292933510, now got 0 active
info: nextReqEvent scheduled@292948510
info: no packet
info: Epoch start = 292998510, turn = 0, subTurn = 2
info: Processing req at 292998510
info: Timing access to addr 5254848, rank/bank/row 0 1 10
info: activation difference: 1
info: Activate at tick 292998511
info: Precharging bank 1, rank 0 at tick 293033511, now got 0 active
info: nextReqEvent scheduled@293048510
info: no packet
info: Epoch start = 293098510, turn = 0, subTurn = 0
info: Processing req at 293098510
info: Timing access to addr 11103104, rank/bank/row 1 3 21
info: activation difference: 1
info: Activate at tick 293098511
info: Precharging bank 3, rank 1 at tick 293133511, now got 0 active
info: nextReqEvent scheduled@293148510
info: Timing access to addr 1760112704, rank/bank/row 1 1 3357
info: activation difference: 0
info: Epoch start = 293198510, turn = 0, subTurn = 1
info: Processing req at 293198510
info: no packet
info: nextReqEvent scheduled@293248510
info: no packet
info: Epoch start = 293298510, turn = 0, subTurn = 2
info: Processing req at 293298510
info: Timing access to addr 2619136, rank/bank/row 7 7 4
info: activation difference: 0
info: Activate at tick 293298510
info: Precharging bank 7, rank 7 at tick 293333510, now got 0 active
info: nextReqEvent scheduled@293348510
info: no packet
info: Epoch start = 293398510, turn = 0, subTurn = 0
info: Processing req at 293398510
info: Timing access to addr 11103168, rank/bank/row 1 3 21
info: activation difference: 0
info: Activate at tick 293398510
info: Precharging bank 3, rank 1 at tick 293433510, now got 0 active
info: nextReqEvent scheduled@293448510
info: Timing access to addr 1760112768, rank/bank/row 1 1 3357
info: activation difference: 0
info: Epoch start = 293498510, turn = 0, subTurn = 1
info: Processing req at 293498510
info: Timing access to addr 19712, rank/bank/row 0 2 0
info: activation difference: 1
info: Activate at tick 293498511
info: Precharging bank 2, rank 0 at tick 293533511, now got 0 active
info: nextReqEvent scheduled@293548510
info: no packet
info: Epoch start = 293598510, turn = 0, subTurn = 2
info: Processing req at 293598510
info: Timing access to addr 80640, rank/bank/row 1 1 0
info: activation difference: 0
info: Activate at tick 293598510
info: Precharging bank 1, rank 1 at tick 293633510, now got 0 active
info: nextReqEvent scheduled@293648510
info: Epoch start = 293698510, turn = 0, subTurn = 0
info: Processing req at 293698510
info: activation difference: 0
info: Activate at tick 293698510
info: Precharging bank 3, rank 1 at tick 293733510, now got 0 active
info: nextReqEvent scheduled@293748510
info: Epoch start = 293798510, turn = 0, subTurn = 1
info: nextReqEvent scheduled@293848510
info: Epoch start = 293898510, turn = 0, subTurn = 2
info: Processing req at 293898510
info: nextReqEvent scheduled@293948510
info: Epoch start = 293998510, turn = 0, subTurn = 0
info: Processing req at 293998510
info: Timing access to addr 960, rank/bank/row 0 0 0
info: activation difference: 1
info: Activate at tick 293998511
info: Precharging bank 0, rank 0 at tick 294033511, now got 0 active
info: nextReqEvent scheduled@294048510
info: no packet
info: Epoch start = 294098510, turn = 0, subTurn = 1
info: Processing req at 294098510
info: Timing access to addr 46848, rank/bank/row 0 5 0
info: activation difference: 0
info: Activate at tick 294098510
info: Precharging bank 5, rank 0 at tick 294133510, now got 0 active
info: nextReqEvent scheduled@294148510
info: Epoch start = 294198510, turn = 0, subTurn = 2
info: Processing req at 294198510
info: nextReqEvent scheduled@294248510
info: Epoch start = 294298510, turn = 0, subTurn = 0
info: Processing req at 294298510
info: activation difference: 1
info: Activate at tick 294298511
info: Precharging bank 0, rank 4 at tick 294333511, now got 0 active
info: nextReqEvent scheduled@294348510
info: Epoch start = 294398510, turn = 0, subTurn = 1
info: nextReqEvent scheduled@294448510
info: no packet
info: Epoch start = 294498510, turn = 0, subTurn = 2
info: Processing req at 294498510
info: Timing access to addr 5254912, rank/bank/row 0 1 10
info: activation difference: 1
info: Activate at tick 294498511
info: Precharging bank 1, rank 0 at tick 294533511, now got 0 active
info: nextReqEvent scheduled@294548510
info: no packet
info: Epoch start = 294598510, turn = 0, subTurn = 0
info: Processing req at 294598510
info: no packet
info: nextReqEvent scheduled@294648510
info: no packet
info: Epoch start = 294698510, turn = 0, subTurn = 1
info: Processing req at 294698510
info: Timing access to addr 2640640, rank/bank/row 0 2 5
info: activation difference: 0
info: Activate at tick 294698510
info: Precharging bank 2, rank 0 at tick 294733510, now got 0 active
info: nextReqEvent scheduled@294748510
info: Epoch start = 294798510, turn = 0, subTurn = 2
info: Processing req at 294798510
info: nextReqEvent scheduled@294848510
info: Epoch start = 294898510, turn = 0, subTurn = 0
info: Processing req at 294898510
info: nextReqEvent scheduled@294948510
info: Epoch start = 294998510, turn = 0, subTurn = 1
info: Processing req at 294998510
info: activation difference: 0
info: Activate at tick 294998510
info: Precharging bank 2, rank 0 at tick 295033510, now got 0 active
info: nextReqEvent scheduled@295048510
info: Epoch start = 295098510, turn = 0, subTurn = 2
info: Processing req at 295098510
info: activation difference: 1
info: Activate at tick 295098511
info: Precharging bank 1, rank 0 at tick 295133511, now got 0 active
info: nextReqEvent scheduled@295148510
info: Epoch start = 295198510, turn = 0, subTurn = 0
info: Processing req at 295198510
info: activation difference: 1
info: Activate at tick 295198511
info: Precharging bank 3, rank 1 at tick 295233511, now got 0 active
info: nextReqEvent scheduled@295248510
info: activation difference: 1
info: Epoch start = 295298510, turn = 0, subTurn = 1
info: Processing req at 295298510
info: nextReqEvent scheduled@295348510
info: Epoch start = 295398510, turn = 0, subTurn = 2
info: Processing req at 295398510
info: nextReqEvent scheduled@295448510
info: Epoch start = 295498510, turn = 0, subTurn = 0
info: Processing req at 295498510
info: activation difference: 1
info: Activate at tick 295498511
info: Precharging bank 3, rank 1 at tick 295533511, now got 0 active
info: nextReqEvent scheduled@295548510
info: Epoch start = 295598510, turn = 0, subTurn = 1
info: Processing req at 295598510
info: nextReqEvent scheduled@295648510
info: Epoch start = 295698510, turn = 0, subTurn = 2
info: Processing req at 295698510
info: nextReqEvent scheduled@295748510
info: Epoch start = 295798510, turn = 0, subTurn = 0
info: Processing req at 295798510
info: activation difference: 1
info: Activate at tick 295798511
info: Precharging bank 3, rank 1 at tick 295833511, now got 0 active
info: nextReqEvent scheduled@295848510
WARNING: Command issued while in power-down mode.
Command: 0, Timestamp: 3973, Bank: 1
WARNING: Command issued while in power-down mode.
Command: 0, Timestamp: 5173, Bank: 1
WARNING: Command issued while in power-down mode.
Command: 0, Timestamp: 4053, Bank: 3
WARNING: Command issued while in power-down mode.
Command: 0, Timestamp: 5973, Bank: 3
info: Epoch start = 295898510, turn = 0, subTurn = 1
info: Processing req at 295898510
info: nextReqEvent scheduled@295948510
info: Epoch start = 295998510, turn = 0, subTurn = 2
info: Processing req at 295998510
info: nextReqEvent scheduled@296048510
info: Epoch start = 296098510, turn = 0, subTurn = 0
info: Processing req at 296098510
info: nextReqEvent scheduled@296148510
info: activation difference: 1
info: Epoch start = 296198510, turn = 0, subTurn = 1
info: Processing req at 296198510
info: Epoch start = 296298510, turn = 0, subTurn = 2
info: Processing req at 296298510
info: nextReqEvent scheduled@296348510
info: no packet
info: Epoch start = 296398510, turn = 0, subTurn = 0
info: Processing req at 296398510
info: Timing access to addr 656832, rank/bank/row 2 0 1
info: activation difference: 1
info: Activate at tick 296398511
info: Precharging bank 0, rank 2 at tick 296433511, now got 0 active
info: nextReqEvent scheduled@296448510
info: Epoch start = 296498510, turn = 0, subTurn = 1
info: Processing req at 296498510
info: nextReqEvent scheduled@296548510
info: no packet
info: Epoch start = 296598510, turn = 0, subTurn = 2
info: Processing req at 296598510
info: Timing access to addr 845376, rank/bank/row 4 7 1
info: activation difference: 1
info: Activate at tick 296598511
info: Precharging bank 7, rank 4 at tick 296633511, now got 0 active
info: nextReqEvent scheduled@296648510
info: no packet
info: Epoch start = 296698510, turn = 0, subTurn = 0
info: Processing req at 296698510
info: no packet
info: nextReqEvent scheduled@296748510
info: no packet
info: Epoch start = 296798510, turn = 0, subTurn = 1
info: Processing req at 296798510
info: Timing access to addr 2640768, rank/bank/row 0 2 5
info: activation difference: 1
info: Activate at tick 296798511
info: Precharging bank 2, rank 0 at tick 296833511, now got 0 active
info: nextReqEvent scheduled@296848510
info: no packet
info: Epoch start = 296898510, turn = 0, subTurn = 2
info: Processing req at 296898510
info: Timing access to addr 5255040, rank/bank/row 0 1 10
info: activation difference: 0
info: Activate at tick 296898510
info: Precharging bank 1, rank 0 at tick 296933510, now got 0 active
info: nextReqEvent scheduled@296948510
info: Timing access to addr 1001088, rank/bank/row 7 2 1
info: activation difference: 1
info: Epoch start = 296998510, turn = 0, subTurn = 0
info: Processing req at 296998510
info: nextReqEvent scheduled@297048510
info: Epoch start = 297098510, turn = 0, subTurn = 1
info: Processing req at 297098510
info: activation difference: 0
info: Activate at tick 297098510
info: Precharging bank 2, rank 0 at tick 297133510, now got 0 active
info: nextReqEvent scheduled@297148510
info: Epoch start = 297198510, turn = 0, subTurn = 2
info: Processing req at 297198510
info: nextReqEvent scheduled@297248510
info: Epoch start = 297298510, turn = 0, subTurn = 0
info: Processing req at 297298510
info: activation difference: 1
info: Activate at tick 297298511
info: Precharging bank 3, rank 1 at tick 297333511, now got 0 active
info: nextReqEvent scheduled@297348510
info: Epoch start = 297398510, turn = 0, subTurn = 1
info: Processing req at 297398510
info: nextReqEvent scheduled@297448510
info: no packet
info: Epoch start = 297498510, turn = 0, subTurn = 2
info: Processing req at 297498510
info: no packet
info: nextReqEvent scheduled@297548510
info: no packet
info: Epoch start = 297598510, turn = 0, subTurn = 0
info: Processing req at 297598510
info: Timing access to addr 11103552, rank/bank/row 1 3 21
info: activation difference: 1
info: Activate at tick 297598511
info: Precharging bank 3, rank 1 at tick 297633511, now got 0 active
info: nextReqEvent scheduled@297648510
info: Timing access to addr 1760112832, rank/bank/row 1 1 3357
info: activation difference: 0
info: Epoch start = 297698510, turn = 0, subTurn = 1
info: Processing req at 297698510
info: no packet
info: nextReqEvent scheduled@297748510
info: no packet
info: Epoch start = 297798510, turn = 0, subTurn = 2
info: Processing req at 297798510
info: no packet
info: nextReqEvent scheduled@297848510
info: no packet
info: Epoch start = 297898510, turn = 0, subTurn = 0
info: Processing req at 297898510
info: Timing access to addr 11103616, rank/bank/row 1 3 21
info: activation difference: 0
info: Activate at tick 297898510
info: Precharging bank 3, rank 1 at tick 297933510, now got 0 active
info: nextReqEvent scheduled@297948510
info: activation difference: 0
info: Epoch start = 297998510, turn = 0, subTurn = 1
info: Processing req at 297998510
info: Epoch start = 298098510, turn = 0, subTurn = 2
info: Epoch start = 298198510, turn = 0, subTurn = 0
info: Epoch start = 298298510, turn = 0, subTurn = 1
info: Epoch start = 298398510, turn = 0, subTurn = 2
info: Processing req at 298398510
info: nextReqEvent scheduled@298448510
info: Epoch start = 298498510, turn = 0, subTurn = 0
info: Processing req at 298498510
info: nextReqEvent scheduled@298548510
info: no packet
info: Epoch start = 298598510, turn = 0, subTurn = 1
info: Processing req at 298598510
info: Timing access to addr 45312, rank/bank/row 0 5 0
info: activation difference: 1
info: Activate at tick 298598511
info: Precharging bank 5, rank 0 at tick 298633511, now got 0 active
info: nextReqEvent scheduled@298648510
info: no packet
info: Epoch start = 298698510, turn = 0, subTurn = 2
info: Processing req at 298698510
info: Timing access to addr 5255104, rank/bank/row 0 1 10
info: activation difference: 0
info: Activate at tick 298698510
info: Precharging bank 1, rank 0 at tick 298733510, now got 0 active
info: nextReqEvent scheduled@298748510
info: Epoch start = 298798510, turn = 0, subTurn = 0
info: Processing req at 298798510
info: nextReqEvent scheduled@298848510
info: Epoch start = 298898510, turn = 0, subTurn = 1
info: Processing req at 298898510
info: activation difference: 0
info: Activate at tick 298898510
info: Precharging bank 2, rank 0 at tick 298933510, now got 0 active
info: nextReqEvent scheduled@298948510
info: Epoch start = 298998510, turn = 0, subTurn = 2
info: Processing req at 298998510
info: activation difference: 1
info: Activate at tick 298998511
info: Precharging bank 1, rank 0 at tick 299033511, now got 0 active
info: nextReqEvent scheduled@299048510
info: Epoch start = 299098510, turn = 0, subTurn = 0
info: Processing req at 299098510
info: activation difference: 1
info: Activate at tick 299098511
info: Precharging bank 3, rank 1 at tick 299133511, now got 0 active
info: nextReqEvent scheduled@299148510
info: Epoch start = 299198510, turn = 0, subTurn = 1
info: Processing req at 299198510
info: no packet
info: nextReqEvent scheduled@299248510
info: Timing access to addr 2492864, rank/bank/row 6 0 4
info: activation difference: 1
info: Epoch start = 299298510, turn = 0, subTurn = 2
info: Processing req at 299298510
info: nextReqEvent scheduled@299348510
info: Epoch start = 299398510, turn = 0, subTurn = 0
info: Processing req at 299398510
info: activation difference: 1
info: Activate at tick 299398511
info: Precharging bank 3, rank 1 at tick 299433511, now got 0 active
info: nextReqEvent scheduled@299448510
info: Epoch start = 299498510, turn = 0, subTurn = 1
info: Processing req at 299498510
info: nextReqEvent scheduled@299548510
info: Epoch start = 299598510, turn = 0, subTurn = 2
info: Processing req at 299598510
info: nextReqEvent scheduled@299648510
info: Epoch start = 299698510, turn = 0, subTurn = 0
info: Processing req at 299698510
info: activation difference: 1
info: Activate at tick 299698511
info: Precharging bank 3, rank 1 at tick 299733511, now got 0 active
info: nextReqEvent scheduled@299748510
info: Epoch start = 299798510, turn = 0, subTurn = 1
info: Epoch start = 299898510, turn = 0, subTurn = 2
info: nextReqEvent scheduled@299948510
info: Epoch start = 299998510, turn = 0, subTurn = 0
info: Processing req at 299998510
info: nextReqEvent scheduled@300048510
info: activation difference: 1
info: Epoch start = 300098510, turn = 0, subTurn = 1
info: Processing req at 300098510
info: Epoch start = 300198510, turn = 0, subTurn = 2
info: Epoch start = 300298510, turn = 0, subTurn = 0
info: nextReqEvent scheduled@300348510
info: Epoch start = 300398510, turn = 0, subTurn = 1
info: Processing req at 300398510
info: Timing access to addr 2640960, rank/bank/row 0 2 5
info: activation difference: 1
info: Activate at tick 300398511
info: Precharging bank 2, rank 0 at tick 300433511, now got 0 active
info: nextReqEvent scheduled@300448510
info: no packet
info: Epoch start = 300498510, turn = 0, subTurn = 2
info: Processing req at 300498510
info: Timing access to addr 5255232, rank/bank/row 0 1 10
info: activation difference: 0
info: Activate at tick 300498510
info: Precharging bank 1, rank 0 at tick 300533510, now got 0 active
info: nextReqEvent scheduled@300548510
info: Epoch start = 300598510, turn = 0, subTurn = 0
info: Processing req at 300598510
info: nextReqEvent scheduled@300648510
info: Epoch start = 300698510, turn = 0, subTurn = 1
info: Processing req at 300698510
info: activation difference: 0
info: Activate at tick 300698510
info: Precharging bank 2, rank 0 at tick 300733510, now got 0 active
info: nextReqEvent scheduled@300748510
info: Epoch start = 300798510, turn = 0, subTurn = 2
info: Processing req at 300798510
info: nextReqEvent scheduled@300848510
info: Timing access to addr 1001152, rank/bank/row 7 2 1
info: activation difference: 1
info: Epoch start = 300898510, turn = 0, subTurn = 0
info: Processing req at 300898510
info: activation difference: 1
info: Activate at tick 300898511
info: Precharging bank 3, rank 1 at tick 300933511, now got 0 active
info: nextReqEvent scheduled@300948510
info: Epoch start = 300998510, turn = 0, subTurn = 1
info: Processing req at 300998510
info: nextReqEvent scheduled@301048510
info: no packet
info: Epoch start = 301098510, turn = 0, subTurn = 2
info: Processing req at 301098510
info: Timing access to addr 2619200, rank/bank/row 7 7 4
info: activation difference: 1
info: Activate at tick 301098511
info: Precharging bank 7, rank 7 at tick 301133511, now got 0 active
info: nextReqEvent scheduled@301148510
info: no packet
info: Epoch start = 301198510, turn = 0, subTurn = 0
info: Processing req at 301198510
info: Timing access to addr 11103936, rank/bank/row 1 3 21
info: activation difference: 1
info: Activate at tick 301198511
info: Precharging bank 3, rank 1 at tick 301233511, now got 0 active
info: nextReqEvent scheduled@301248510
info: Epoch start = 301298510, turn = 0, subTurn = 1
info: Processing req at 301298510
info: no packet
info: nextReqEvent scheduled@301348510
info: no packet
info: Epoch start = 301398510, turn = 0, subTurn = 2
info: Processing req at 301398510
info: Timing access to addr 80704, rank/bank/row 1 1 0
info: activation difference: 0
info: Activate at tick 301398510
info: Precharging bank 1, rank 1 at tick 301433510, now got 0 active
info: nextReqEvent scheduled@301448510
info: Epoch start = 301498510, turn = 0, subTurn = 0
info: Processing req at 301498510
info: activation difference: 0
info: Activate at tick 301498510
info: Precharging bank 3, rank 1 at tick 301533510, now got 0 active
info: nextReqEvent scheduled@301548510
info: Epoch start = 301598510, turn = 0, subTurn = 1
info: Epoch start = 301698510, turn = 0, subTurn = 2
info: Epoch start = 301798510, turn = 0, subTurn = 0
info: nextReqEvent scheduled@301848510
info: Timing access to addr 1760112960, rank/bank/row 1 1 3357
info: activation difference: 1
info: Epoch start = 301898510, turn = 0, subTurn = 1
info: Processing req at 301898510
info: nextReqEvent scheduled@301948510
info: Epoch start = 301998510, turn = 0, subTurn = 2
info: Processing req at 301998510
info: nextReqEvent scheduled@302048510
info: Timing access to addr 1198144, rank/bank/row 2 2 2
info: activation difference: 1
info: Epoch start = 302098510, turn = 0, subTurn = 0
info: Processing req at 302098510
info: nextReqEvent scheduled@302148510
info: Timing access to addr 1760113024, rank/bank/row 1 1 3357
info: activation difference: 0
info: Epoch start = 302198510, turn = 0, subTurn = 1
info: Processing req at 302198510
info: Timing access to addr 2641088, rank/bank/row 0 2 5
info: activation difference: 1
info: Activate at tick 302198511
info: Precharging bank 2, rank 0 at tick 302233511, now got 0 active
info: nextReqEvent scheduled@302248510
info: no packet
info: Epoch start = 302298510, turn = 0, subTurn = 2
info: Processing req at 302298510
info: Timing access to addr 5255296, rank/bank/row 0 1 10
info: activation difference: 0
info: Activate at tick 302298510
info: Precharging bank 1, rank 0 at tick 302333510, now got 0 active
info: nextReqEvent scheduled@302348510
info: no packet
info: Epoch start = 302398510, turn = 0, subTurn = 0
info: Processing req at 302398510
info: no packet
info: nextReqEvent scheduled@302448510
info: Timing access to addr 1832832, rank/bank/row 3 7 3
info: activation difference: 1
info: Epoch start = 302498510, turn = 0, subTurn = 1
info: Processing req at 302498510
info: nextReqEvent scheduled@302548510
info: Epoch start = 302598510, turn = 0, subTurn = 2
info: Processing req at 302598510
info: activation difference: 0
info: Activate at tick 302598510
info: Precharging bank 1, rank 0 at tick 302633510, now got 0 active
info: nextReqEvent scheduled@302648510
info: Epoch start = 302698510, turn = 0, subTurn = 0
info: Processing req at 302698510
info: activation difference: 1
info: Activate at tick 302698511
info: Precharging bank 3, rank 1 at tick 302733511, now got 0 active
info: nextReqEvent scheduled@302748510
info: Epoch start = 302798510, turn = 0, subTurn = 1
info: Processing req at 302798510
info: nextReqEvent scheduled@302848510
info: Epoch start = 302898510, turn = 0, subTurn = 2
info: Processing req at 302898510
info: nextReqEvent scheduled@302948510
info: Epoch start = 302998510, turn = 0, subTurn = 0
info: Processing req at 302998510
info: activation difference: 1
info: Activate at tick 302998511
info: Precharging bank 3, rank 1 at tick 303033511, now got 0 active
info: nextReqEvent scheduled@303048510
info: Epoch start = 303098510, turn = 0, subTurn = 1
info: Processing req at 303098510
info: no packet
info: nextReqEvent scheduled@303148510
info: Timing access to addr 853184, rank/bank/row 5 0 1
info: activation difference: 1
info: Epoch start = 303198510, turn = 0, subTurn = 2
info: Processing req at 303198510
info: nextReqEvent scheduled@303248510
info: Epoch start = 303298510, turn = 0, subTurn = 0
info: Processing req at 303298510
info: activation difference: 1
info: Activate at tick 303298511
info: Precharging bank 3, rank 1 at tick 303333511, now got 0 active
info: nextReqEvent scheduled@303348510
info: Epoch start = 303398510, turn = 0, subTurn = 1
info: Epoch start = 303498510, turn = 0, subTurn = 2
info: nextReqEvent scheduled@303548510
info: Epoch start = 303598510, turn = 0, subTurn = 0
info: Processing req at 303598510
info: nextReqEvent scheduled@303648510
info: Epoch start = 303698510, turn = 0, subTurn = 1
info: Processing req at 303698510
info: nextReqEvent scheduled@303748510
info: Epoch start = 303798510, turn = 0, subTurn = 2
info: Processing req at 303798510
info: nextReqEvent scheduled@303848510
info: Epoch start = 303898510, turn = 0, subTurn = 0
info: Processing req at 303898510
info: no packet
info: nextReqEvent scheduled@303948510
info: Timing access to addr 1760113088, rank/bank/row 1 1 3357
info: activation difference: 1
info: Epoch start = 303998510, turn = 0, subTurn = 1
info: Processing req at 303998510
info: no packet
info: nextReqEvent scheduled@304048510
info: no packet
info: Epoch start = 304098510, turn = 0, subTurn = 2
info: Processing req at 304098510
info: Timing access to addr 845888, rank/bank/row 4 7 1
info: activation difference: 1
info: Activate at tick 304098511
info: Precharging bank 7, rank 4 at tick 304133511, now got 0 active
info: nextReqEvent scheduled@304148510
info: no packet
info: Epoch start = 304198510, turn = 0, subTurn = 0
info: Processing req at 304198510
info: Timing access to addr 837376, rank/bank/row 4 6 1
info: activation difference: 0
info: Activate at tick 304198510
info: Precharging bank 6, rank 4 at tick 304233510, now got 0 active
info: nextReqEvent scheduled@304248510
info: Timing access to addr 1760113152, rank/bank/row 1 1 3357
info: activation difference: 1
info: Epoch start = 304298510, turn = 0, subTurn = 1
info: Processing req at 304298510
info: Timing access to addr 2641216, rank/bank/row 0 2 5
info: activation difference: 1
info: Activate at tick 304298511
info: Precharging bank 2, rank 0 at tick 304333511, now got 0 active
info: nextReqEvent scheduled@304348510
info: no packet
info: Epoch start = 304398510, turn = 0, subTurn = 2
info: Processing req at 304398510
info: Timing access to addr 5255424, rank/bank/row 0 1 10
info: activation difference: 1
info: Activate at tick 304398511
info: Precharging bank 1, rank 0 at tick 304433511, now got 0 active
info: nextReqEvent scheduled@304448510
info: no packet
info: Epoch start = 304498510, turn = 0, subTurn = 0
info: Processing req at 304498510
info: Timing access to addr 837696, rank/bank/row 4 6 1
info: activation difference: 0
info: Activate at tick 304498510
info: Precharging bank 6, rank 4 at tick 304533510, now got 0 active
info: nextReqEvent scheduled@304548510
info: no packet
info: Epoch start = 304598510, turn = 0, subTurn = 1
info: Processing req at 304598510
info: Timing access to addr 2641152, rank/bank/row 0 2 5
info: activation difference: 1
info: Activate at tick 304598511
info: Precharging bank 2, rank 0 at tick 304633511, now got 0 active
info: nextReqEvent scheduled@304648510
info: no packet
info: Epoch start = 304698510, turn = 0, subTurn = 2
info: Processing req at 304698510
info: Timing access to addr 5255488, rank/bank/row 0 1 10
info: activation difference: 0
info: Activate at tick 304698510
info: Precharging bank 1, rank 0 at tick 304733510, now got 0 active
info: nextReqEvent scheduled@304748510
info: no packet
info: Epoch start = 304798510, turn = 0, subTurn = 0
info: Processing req at 304798510
info: Timing access to addr 838144, rank/bank/row 4 6 1
info: activation difference: 0
info: Activate at tick 304798510
info: Precharging bank 6, rank 4 at tick 304833510, now got 0 active
info: nextReqEvent scheduled@304848510
info: no packet
info: Epoch start = 304898510, turn = 0, subTurn = 1
info: Processing req at 304898510
info: no packet
info: nextReqEvent scheduled@304948510
info: no packet
info: Epoch start = 304998510, turn = 0, subTurn = 2
info: Processing req at 304998510
info: no packet
info: nextReqEvent scheduled@305048510
info: no packet
info: Epoch start = 305098510, turn = 0, subTurn = 0
info: Processing req at 305098510
info: Timing access to addr 837632, rank/bank/row 4 6 1
info: activation difference: 0
info: Activate at tick 305098510
info: Precharging bank 6, rank 4 at tick 305133510, now got 0 active
info: nextReqEvent scheduled@305148510
info: Epoch start = 305198510, turn = 0, subTurn = 1
info: Processing req at 305198510
info: nextReqEvent scheduled@305248510
info: Epoch start = 305298510, turn = 0, subTurn = 2
info: Processing req at 305298510
info: nextReqEvent scheduled@305348510
info: Epoch start = 305398510, turn = 0, subTurn = 0
info: Processing req at 305398510
info: activation difference: 1
info: Activate at tick 305398511
info: Precharging bank 3, rank 1 at tick 305433511, now got 0 active
info: nextReqEvent scheduled@305448510
info: Timing access to addr 1833344, rank/bank/row 3 7 3
info: activation difference: 1
info: Epoch start = 305498510, turn = 0, subTurn = 1
info: Processing req at 305498510
info: no packet
info: nextReqEvent scheduled@305548510
info: Timing access to addr 1826752, rank/bank/row 3 6 3
info: activation difference: 0
info: Epoch start = 305598510, turn = 0, subTurn = 2
info: Processing req at 305598510
info: nextReqEvent scheduled@305648510
info: Epoch start = 305698510, turn = 0, subTurn = 0
info: Processing req at 305698510
info: activation difference: 1
info: Activate at tick 305698511
info: Precharging bank 3, rank 1 at tick 305733511, now got 0 active
info: nextReqEvent scheduled@305748510
info: Epoch start = 305798510, turn = 0, subTurn = 1
info: Processing req at 305798510
info: no packet
info: nextReqEvent scheduled@305848510
info: Timing access to addr 1835840, rank/bank/row 4 0 3
info: activation difference: 1
info: Epoch start = 305898510, turn = 0, subTurn = 2
info: Processing req at 305898510
info: nextReqEvent scheduled@305948510
info: Epoch start = 305998510, turn = 0, subTurn = 0
info: Processing req at 305998510
info: activation difference: 1
info: Activate at tick 305998511
info: Precharging bank 3, rank 1 at tick 306033511, now got 0 active
info: nextReqEvent scheduled@306048510
info: Epoch start = 306098510, turn = 0, subTurn = 1
info: Epoch start = 306198510, turn = 0, subTurn = 2
info: Epoch start = 306298510, turn = 0, subTurn = 0
info: Epoch start = 306398510, turn = 0, subTurn = 1
info: nextReqEvent scheduled@306448510
info: activation difference: 1
info: Epoch start = 306498510, turn = 0, subTurn = 2
info: Processing req at 306498510
info: nextReqEvent scheduled@306548510
info: no packet
info: Epoch start = 306598510, turn = 0, subTurn = 0
info: Processing req at 306598510
info: no packet
info: nextReqEvent scheduled@306648510
info: Timing access to addr 2484864, rank/bank/row 5 7 4
info: activation difference: 1
info: Epoch start = 306698510, turn = 0, subTurn = 1
info: Processing req at 306698510
info: Timing access to addr 2641280, rank/bank/row 0 2 5
info: activation difference: 1
info: Activate at tick 306698511
info: Precharging bank 2, rank 0 at tick 306733511, now got 0 active
info: nextReqEvent scheduled@306748510
info: Epoch start = 306798510, turn = 0, subTurn = 2
info: Processing req at 306798510
info: Timing access to addr 5255552, rank/bank/row 0 1 10
info: activation difference: 0
info: Activate at tick 306798510
info: Precharging bank 1, rank 0 at tick 306833510, now got 0 active
info: nextReqEvent scheduled@306848510
info: Epoch start = 306898510, turn = 0, subTurn = 0
info: Processing req at 306898510
info: nextReqEvent scheduled@306948510
info: Epoch start = 306998510, turn = 0, subTurn = 1
info: Processing req at 306998510
info: activation difference: 0
info: Activate at tick 306998510
info: Precharging bank 2, rank 0 at tick 307033510, now got 0 active
info: nextReqEvent scheduled@307048510
info: Epoch start = 307098510, turn = 0, subTurn = 2
info: Processing req at 307098510
info: nextReqEvent scheduled@307148510
info: Epoch start = 307198510, turn = 0, subTurn = 0
info: Processing req at 307198510
info: activation difference: 1
info: Activate at tick 307198511
info: Precharging bank 3, rank 1 at tick 307233511, now got 0 active
info: nextReqEvent scheduled@307248510
info: Epoch start = 307298510, turn = 0, subTurn = 1
info: Processing req at 307298510
info: nextReqEvent scheduled@307348510
info: Epoch start = 307398510, turn = 0, subTurn = 2
info: Processing req at 307398510
info: nextReqEvent scheduled@307448510
info: Epoch start = 307498510, turn = 0, subTurn = 0
info: Processing req at 307498510
info: activation difference: 1
info: Activate at tick 307498511
info: Precharging bank 3, rank 1 at tick 307533511, now got 0 active
info: nextReqEvent scheduled@307548510
info: Epoch start = 307598510, turn = 0, subTurn = 1
info: Processing req at 307598510
info: nextReqEvent scheduled@307648510
info: Epoch start = 307698510, turn = 0, subTurn = 2
info: Processing req at 307698510
info: nextReqEvent scheduled@307748510
info: Epoch start = 307798510, turn = 0, subTurn = 0
info: Processing req at 307798510
info: activation difference: 1
info: Activate at tick 307798511
info: Precharging bank 3, rank 1 at tick 307833511, now got 0 active
info: nextReqEvent scheduled@307848510
info: Epoch start = 307898510, turn = 0, subTurn = 1
info: Epoch start = 307998510, turn = 0, subTurn = 2
info: Epoch start = 308098510, turn = 0, subTurn = 0
info: Processing req at 308098510
info: nextReqEvent scheduled@308148510
info: Epoch start = 308198510, turn = 0, subTurn = 1
info: Processing req at 308198510
info: nextReqEvent scheduled@308248510
info: activation difference: 1
info: Epoch start = 308298510, turn = 0, subTurn = 2
info: Processing req at 308298510
info: Timing access to addr 5255616, rank/bank/row 0 1 10
info: activation difference: 1
info: Activate at tick 308298511
info: Precharging bank 1, rank 0 at tick 308333511, now got 0 active
info: nextReqEvent scheduled@308348510
info: Epoch start = 308398510, turn = 0, subTurn = 0
info: Processing req at 308398510
info: no packet
info: nextReqEvent scheduled@308448510
info: Timing access to addr 1481664, rank/bank/row 6 4 2
info: activation difference: 1
info: Epoch start = 308498510, turn = 0, subTurn = 1
info: Processing req at 308498510
info: Timing access to addr 2641408, rank/bank/row 0 2 5
info: activation difference: 0
info: Activate at tick 308498510
info: Precharging bank 2, rank 0 at tick 308533510, now got 0 active
info: nextReqEvent scheduled@308548510
info: no packet
info: Epoch start = 308598510, turn = 0, subTurn = 2
info: Processing req at 308598510
info: Timing access to addr 5255680, rank/bank/row 0 1 10
info: activation difference: 1
info: Activate at tick 308598511
info: Precharging bank 1, rank 0 at tick 308633511, now got 0 active
info: nextReqEvent scheduled@308648510
info: Timing access to addr 1198208, rank/bank/row 2 2 2
info: activation difference: 1
info: Epoch start = 308698510, turn = 0, subTurn = 0
info: Processing req at 308698510
info: Timing access to addr 11104640, rank/bank/row 1 3 21
info: activation difference: 1
info: Activate at tick 308698511
info: Precharging bank 3, rank 1 at tick 308733511, now got 0 active
info: nextReqEvent scheduled@308748510
info: Timing access to addr 1760113216, rank/bank/row 1 1 3357
info: activation difference: 0
info: Epoch start = 308798510, turn = 0, subTurn = 1
info: Processing req at 308798510
info: no packet
info: nextReqEvent scheduled@308848510
info: no packet
info: Epoch start = 308898510, turn = 0, subTurn = 2
info: Processing req at 308898510
info: no packet
info: nextReqEvent scheduled@308948510
info: no packet
info: Epoch start = 308998510, turn = 0, subTurn = 0
info: Processing req at 308998510
info: Timing access to addr 11104704, rank/bank/row 1 3 21
info: activation difference: 0
info: Activate at tick 308998510
info: Precharging bank 3, rank 1 at tick 309033510, now got 0 active
info: nextReqEvent scheduled@309048510
info: activation difference: 0
info: Epoch start = 309098510, turn = 0, subTurn = 1
info: Processing req at 309098510
info: nextReqEvent scheduled@309148510
info: Epoch start = 309198510, turn = 0, subTurn = 2
info: Processing req at 309198510
info: nextReqEvent scheduled@309248510
info: Epoch start = 309298510, turn = 0, subTurn = 0
info: Processing req at 309298510
info: Timing access to addr 11104768, rank/bank/row 1 3 21
info: activation difference: 0
info: Activate at tick 309298510
info: Precharging bank 3, rank 1 at tick 309333510, now got 0 active
info: nextReqEvent scheduled@309348510
info: activation difference: 0
info: Epoch start = 309398510, turn = 0, subTurn = 1
info: Processing req at 309398510
info: Epoch start = 309498510, turn = 0, subTurn = 2
info: Epoch start = 309598510, turn = 0, subTurn = 0
info: nextReqEvent scheduled@309648510
info: Epoch start = 309698510, turn = 0, subTurn = 1
info: Processing req at 309698510
info: nextReqEvent scheduled@309748510
info: activation difference: 1
info: Epoch start = 309798510, turn = 0, subTurn = 2
info: Processing req at 309798510
info: Timing access to addr 5255744, rank/bank/row 0 1 10
info: activation difference: 1
info: Activate at tick 309798511
info: Precharging bank 1, rank 0 at tick 309833511, now got 0 active
info: nextReqEvent scheduled@309848510
info: no packet
info: Epoch start = 309898510, turn = 0, subTurn = 0
info: Processing req at 309898510
info: no packet
info: nextReqEvent scheduled@309948510
info: no packet
info: Epoch start = 309998510, turn = 0, subTurn = 1
info: Processing req at 309998510
info: Timing access to addr 2641472, rank/bank/row 0 2 5
info: activation difference: 0
info: Activate at tick 309998510
info: Precharging bank 2, rank 0 at tick 310033510, now got 0 active
info: nextReqEvent scheduled@310048510
info: Epoch start = 310098510, turn = 0, subTurn = 2
info: Processing req at 310098510
info: nextReqEvent scheduled@310148510
info: Epoch start = 310198510, turn = 0, subTurn = 0
info: Processing req at 310198510
info: nextReqEvent scheduled@310248510
info: Epoch start = 310298510, turn = 0, subTurn = 1
info: Processing req at 310298510
info: activation difference: 0
info: Activate at tick 310298510
info: Precharging bank 2, rank 0 at tick 310333510, now got 0 active
info: nextReqEvent scheduled@310348510
info: Epoch start = 310398510, turn = 0, subTurn = 2
info: Processing req at 310398510
info: activation difference: 1
info: Activate at tick 310398511
info: Precharging bank 1, rank 0 at tick 310433511, now got 0 active
info: nextReqEvent scheduled@310448510
info: Epoch start = 310498510, turn = 0, subTurn = 0
info: Processing req at 310498510
info: activation difference: 1
info: Activate at tick 310498511
info: Precharging bank 3, rank 1 at tick 310533511, now got 0 active
info: nextReqEvent scheduled@310548510
info: Epoch start = 310598510, turn = 0, subTurn = 1
info: Processing req at 310598510
info: nextReqEvent scheduled@310648510
info: Epoch start = 310698510, turn = 0, subTurn = 2
info: Processing req at 310698510
info: nextReqEvent scheduled@310748510
info: Epoch start = 310798510, turn = 0, subTurn = 0
info: Processing req at 310798510
info: activation difference: 1
info: Activate at tick 310798511
info: Precharging bank 3, rank 1 at tick 310833511, now got 0 active
info: nextReqEvent scheduled@310848510
info: Epoch start = 310898510, turn = 0, subTurn = 1
info: Processing req at 310898510
info: nextReqEvent scheduled@310948510
info: Epoch start = 310998510, turn = 0, subTurn = 2
info: Processing req at 310998510
info: nextReqEvent scheduled@311048510
info: Epoch start = 311098510, turn = 0, subTurn = 0
info: Processing req at 311098510
info: activation difference: 1
info: Activate at tick 311098511
info: Precharging bank 3, rank 1 at tick 311133511, now got 0 active
info: nextReqEvent scheduled@311148510
info: Epoch start = 311198510, turn = 0, subTurn = 1
info: Epoch start = 311298510, turn = 0, subTurn = 2
info: Epoch start = 311398510, turn = 0, subTurn = 0
info: Epoch start = 311498510, turn = 0, subTurn = 1
info: Epoch start = 311598510, turn = 0, subTurn = 2
info: Processing req at 311598510
info: nextReqEvent scheduled@311648510
info: Epoch start = 311698510, turn = 0, subTurn = 0
info: Processing req at 311698510
info: no packet
info: nextReqEvent scheduled@311748510
info: no packet
info: Epoch start = 311798510, turn = 0, subTurn = 1
info: Processing req at 311798510
info: Timing access to addr 2641600, rank/bank/row 0 2 5
info: activation difference: 1
info: Activate at tick 311798511
info: Precharging bank 2, rank 0 at tick 311833511, now got 0 active
info: nextReqEvent scheduled@311848510
info: Epoch start = 311898510, turn = 0, subTurn = 2
info: Processing req at 311898510
info: Timing access to addr 5255872, rank/bank/row 0 1 10
info: activation difference: 0
info: Activate at tick 311898510
info: Precharging bank 1, rank 0 at tick 311933510, now got 0 active
info: nextReqEvent scheduled@311948510
info: Epoch start = 311998510, turn = 0, subTurn = 0
info: Processing req at 311998510
info: no packet
info: nextReqEvent scheduled@312048510
info: no packet
info: Epoch start = 312098510, turn = 0, subTurn = 1
info: Processing req at 312098510
info: Timing access to addr 2641664, rank/bank/row 0 2 5
info: activation difference: 0
info: Activate at tick 312098510
info: Precharging bank 2, rank 0 at tick 312133510, now got 0 active
info: nextReqEvent scheduled@312148510
info: activation difference: 1
info: Epoch start = 312198510, turn = 0, subTurn = 2
info: Processing req at 312198510
info: nextReqEvent scheduled@312248510
info: Epoch start = 312298510, turn = 0, subTurn = 0
info: Processing req at 312298510
info: activation difference: 1
info: Activate at tick 312298511
info: Precharging bank 3, rank 1 at tick 312333511, now got 0 active
info: nextReqEvent scheduled@312348510
info: Epoch start = 312398510, turn = 0, subTurn = 1
info: Processing req at 312398510
info: nextReqEvent scheduled@312448510
info: Epoch start = 312498510, turn = 0, subTurn = 2
info: Processing req at 312498510
info: nextReqEvent scheduled@312548510
info: Epoch start = 312598510, turn = 0, subTurn = 0
info: Processing req at 312598510
info: Timing access to addr 11105088, rank/bank/row 1 3 21
info: activation difference: 1
info: Activate at tick 312598511
info: Precharging bank 3, rank 1 at tick 312633511, now got 0 active
info: nextReqEvent scheduled@312648510
info: Timing access to addr 1760113344, rank/bank/row 1 1 3357
info: activation difference: 0
info: Epoch start = 312698510, turn = 0, subTurn = 1
info: Processing req at 312698510
info: no packet
info: nextReqEvent scheduled@312748510
info: no packet
info: Epoch start = 312798510, turn = 0, subTurn = 2
info: Processing req at 312798510
info: no packet
info: nextReqEvent scheduled@312848510
info: no packet
info: Epoch start = 312898510, turn = 0, subTurn = 0
info: Processing req at 312898510
info: Timing access to addr 11105152, rank/bank/row 1 3 21
info: activation difference: 0
info: Activate at tick 312898510
info: Precharging bank 3, rank 1 at tick 312933510, now got 0 active
info: nextReqEvent scheduled@312948510
info: Timing access to addr 1760113408, rank/bank/row 1 1 3357
info: activation difference: 0
info: Epoch start = 312998510, turn = 0, subTurn = 1
info: Processing req at 312998510
info: nextReqEvent scheduled@313048510
info: Epoch start = 313098510, turn = 0, subTurn = 2
info: Processing req at 313098510
info: no packet
info: nextReqEvent scheduled@313148510
info: no packet
info: Epoch start = 313198510, turn = 0, subTurn = 0
info: Processing req at 313198510
info: no packet
info: nextReqEvent scheduled@313248510
info: Timing access to addr 1284672, rank/bank/row 3 4 2
info: activation difference: 1
info: Epoch start = 313298510, turn = 0, subTurn = 1
info: Processing req at 313298510
info: nextReqEvent scheduled@313348510
info: Epoch start = 313398510, turn = 0, subTurn = 2
info: Processing req at 313398510
info: Timing access to addr 5255936, rank/bank/row 0 1 10
info: activation difference: 1
info: Activate at tick 313398511
info: Precharging bank 1, rank 0 at tick 313433511, now got 0 active
info: nextReqEvent scheduled@313448510
info: no packet
info: Epoch start = 313498510, turn = 0, subTurn = 0
info: Processing req at 313498510
info: no packet
info: nextReqEvent scheduled@313548510
info: Timing access to addr 930496, rank/bank/row 6 1 1
info: activation difference: 1
info: Epoch start = 313598510, turn = 0, subTurn = 1
info: Processing req at 313598510
info: activation difference: 0
info: Activate at tick 313598510
info: Precharging bank 2, rank 0 at tick 313633510, now got 0 active
info: nextReqEvent scheduled@313648510
info: Epoch start = 313698510, turn = 0, subTurn = 2
info: Processing req at 313698510
info: activation difference: 1
info: Activate at tick 313698511
info: Precharging bank 1, rank 0 at tick 313733511, now got 0 active
info: nextReqEvent scheduled@313748510
info: Epoch start = 313798510, turn = 0, subTurn = 0
info: Processing req at 313798510
info: activation difference: 1
info: Activate at tick 313798511
info: Precharging bank 3, rank 1 at tick 313833511, now got 0 active
info: nextReqEvent scheduled@313848510
info: Epoch start = 313898510, turn = 0, subTurn = 1
info: Processing req at 313898510
info: nextReqEvent scheduled@313948510
info: Epoch start = 313998510, turn = 0, subTurn = 2
info: Processing req at 313998510
info: nextReqEvent scheduled@314048510
info: Epoch start = 314098510, turn = 0, subTurn = 0
info: Processing req at 314098510
info: activation difference: 1
info: Activate at tick 314098511
info: Precharging bank 3, rank 1 at tick 314133511, now got 0 active
info: nextReqEvent scheduled@314148510
info: Epoch start = 314198510, turn = 0, subTurn = 1
info: Processing req at 314198510
info: nextReqEvent scheduled@314248510
info: Epoch start = 314298510, turn = 0, subTurn = 2
info: Processing req at 314298510
info: no packet
info: nextReqEvent scheduled@314348510
info: Timing access to addr 1815168, rank/bank/row 3 5 3
info: activation difference: 1
info: Epoch start = 314398510, turn = 0, subTurn = 0
info: Processing req at 314398510
info: Timing access to addr 11105344, rank/bank/row 1 3 21
info: activation difference: 1
info: Activate at tick 314398511
info: Precharging bank 3, rank 1 at tick 314433511, now got 0 active
info: nextReqEvent scheduled@314448510
info: activation difference: 0
info: Epoch start = 314498510, turn = 0, subTurn = 1
info: Processing req at 314498510
info: Epoch start = 314598510, turn = 0, subTurn = 2
info: Processing req at 314598510
info: nextReqEvent scheduled@314648510
info: Epoch start = 314698510, turn = 0, subTurn = 0
info: Processing req at 314698510
info: nextReqEvent scheduled@314748510
info: activation difference: 1
info: Epoch start = 314798510, turn = 0, subTurn = 1
info: Processing req at 314798510
info: Epoch start = 314898510, turn = 0, subTurn = 2
info: Processing req at 314898510
info: Timing access to addr 5256064, rank/bank/row 0 1 10
info: activation difference: 1
info: Activate at tick 314898511
info: Precharging bank 1, rank 0 at tick 314933511, now got 0 active
info: nextReqEvent scheduled@314948510
info: no packet
info: Epoch start = 314998510, turn = 0, subTurn = 0
info: Processing req at 314998510
info: no packet
info: nextReqEvent scheduled@315048510
info: no packet
info: Epoch start = 315098510, turn = 0, subTurn = 1
info: Processing req at 315098510
info: Timing access to addr 2641792, rank/bank/row 0 2 5
info: activation difference: 0
info: Activate at tick 315098510
info: Precharging bank 2, rank 0 at tick 315133510, now got 0 active
info: nextReqEvent scheduled@315148510
info: Epoch start = 315198510, turn = 0, subTurn = 2
info: Processing req at 315198510
info: nextReqEvent scheduled@315248510
info: Epoch start = 315298510, turn = 0, subTurn = 0
info: Processing req at 315298510
info: nextReqEvent scheduled@315348510
info: Epoch start = 315398510, turn = 0, subTurn = 1
info: Processing req at 315398510
info: activation difference: 0
info: Activate at tick 315398510
info: Precharging bank 2, rank 0 at tick 315433510, now got 0 active
info: nextReqEvent scheduled@315448510
info: Epoch start = 315498510, turn = 0, subTurn = 2
info: Processing req at 315498510
info: nextReqEvent scheduled@315548510
info: no packet
info: Epoch start = 315598510, turn = 0, subTurn = 0
info: Processing req at 315598510
info: Timing access to addr 11105408, rank/bank/row 1 3 21
info: activation difference: 1
info: Activate at tick 315598511
info: Precharging bank 3, rank 1 at tick 315633511, now got 0 active
info: nextReqEvent scheduled@315648510
info: activation difference: 1
info: Epoch start = 315698510, turn = 0, subTurn = 1
info: Processing req at 315698510
info: nextReqEvent scheduled@315748510
info: Epoch start = 315798510, turn = 0, subTurn = 2
info: Processing req at 315798510
info: nextReqEvent scheduled@315848510
info: Epoch start = 315898510, turn = 0, subTurn = 0
info: Processing req at 315898510
info: Timing access to addr 11105472, rank/bank/row 1 3 21
info: activation difference: 1
info: Activate at tick 315898511
info: Precharging bank 3, rank 1 at tick 315933511, now got 0 active
info: nextReqEvent scheduled@315948510
info: activation difference: 1
info: Epoch start = 315998510, turn = 0, subTurn = 1
info: Processing req at 315998510
info: nextReqEvent scheduled@316048510
info: Epoch start = 316098510, turn = 0, subTurn = 2
info: Processing req at 316098510
info: nextReqEvent scheduled@316148510
info: Epoch start = 316198510, turn = 0, subTurn = 0
info: Processing req at 316198510
info: Timing access to addr 11105536, rank/bank/row 1 3 21
info: activation difference: 1
info: Activate at tick 316198511
info: Precharging bank 3, rank 1 at tick 316233511, now got 0 active
info: nextReqEvent scheduled@316248510
info: activation difference: 1
info: Epoch start = 316298510, turn = 0, subTurn = 1
info: Processing req at 316298510
info: Epoch start = 316398510, turn = 0, subTurn = 2
info: Epoch start = 316498510, turn = 0, subTurn = 0
info: Epoch start = 316598510, turn = 0, subTurn = 1
info: Epoch start = 316698510, turn = 0, subTurn = 2
info: Processing req at 316698510
info: Timing access to addr 5256128, rank/bank/row 0 1 10
info: activation difference: 1
info: Activate at tick 316698511
info: Precharging bank 1, rank 0 at tick 316733511, now got 0 active
info: nextReqEvent scheduled@316748510
info: no packet
info: Epoch start = 316798510, turn = 0, subTurn = 0
info: Processing req at 316798510
info: no packet
info: nextReqEvent scheduled@316848510
info: no packet
info: Epoch start = 316898510, turn = 0, subTurn = 1
info: Processing req at 316898510
info: Timing access to addr 2641920, rank/bank/row 0 2 5
info: activation difference: 0
info: Activate at tick 316898510
info: Precharging bank 2, rank 0 at tick 316933510, now got 0 active
info: nextReqEvent scheduled@316948510
info: Epoch start = 316998510, turn = 0, subTurn = 2
info: Processing req at 316998510
info: activation difference: 0
info: Activate at tick 316998510
info: Precharging bank 1, rank 0 at tick 317033510, now got 0 active
info: nextReqEvent scheduled@317048510
info: Epoch start = 317098510, turn = 0, subTurn = 0
info: Processing req at 317098510
info: activation difference: 1
info: Activate at tick 317098511
info: Precharging bank 3, rank 1 at tick 317133511, now got 0 active
info: nextReqEvent scheduled@317148510
info: Epoch start = 317198510, turn = 0, subTurn = 1
info: Processing req at 317198510
info: nextReqEvent scheduled@317248510
info: Epoch start = 317298510, turn = 0, subTurn = 2
info: Processing req at 317298510
info: nextReqEvent scheduled@317348510
info: Epoch start = 317398510, turn = 0, subTurn = 0
info: Processing req at 317398510
info: activation difference: 1
info: Activate at tick 317398511
info: Precharging bank 3, rank 1 at tick 317433511, now got 0 active
info: nextReqEvent scheduled@317448510
info: Epoch start = 317498510, turn = 0, subTurn = 1
info: Processing req at 317498510
info: nextReqEvent scheduled@317548510
info: no packet
info: Epoch start = 317598510, turn = 0, subTurn = 2
info: Processing req at 317598510
info: no packet
info: nextReqEvent scheduled@317648510
info: no packet
info: Epoch start = 317698510, turn = 0, subTurn = 0
info: Processing req at 317698510
info: Timing access to addr 11105728, rank/bank/row 1 3 21
info: activation difference: 1
info: Activate at tick 317698511
info: Precharging bank 3, rank 1 at tick 317733511, now got 0 active
info: nextReqEvent scheduled@317748510
info: activation difference: 1
info: Epoch start = 317798510, turn = 0, subTurn = 1
info: Processing req at 317798510
info: Epoch start = 317898510, turn = 0, subTurn = 2
info: Epoch start = 317998510, turn = 0, subTurn = 0
info: Epoch start = 318098510, turn = 0, subTurn = 1
info: Epoch start = 318198510, turn = 0, subTurn = 2
info: Processing req at 318198510
info: Timing access to addr 5256256, rank/bank/row 0 1 10
info: activation difference: 1
info: Activate at tick 318198511
info: Precharging bank 1, rank 0 at tick 318233511, now got 0 active
info: nextReqEvent scheduled@318248510
info: no packet
info: Epoch start = 318298510, turn = 0, subTurn = 0
info: Processing req at 318298510
info: no packet
info: nextReqEvent scheduled@318348510
info: no packet
info: Epoch start = 318398510, turn = 0, subTurn = 1
info: Processing req at 318398510
info: Timing access to addr 2642048, rank/bank/row 0 2 5
info: activation difference: 0
info: Activate at tick 318398510
info: Precharging bank 2, rank 0 at tick 318433510, now got 0 active
info: nextReqEvent scheduled@318448510
info: Epoch start = 318498510, turn = 0, subTurn = 2
info: Processing req at 318498510
info: Timing access to addr 5256320, rank/bank/row 0 1 10
info: activation difference: 0
info: Activate at tick 318498510
info: Precharging bank 1, rank 0 at tick 318533510, now got 0 active
info: nextReqEvent scheduled@318548510
info: no packet
info: Epoch start = 318598510, turn = 0, subTurn = 0
info: Processing req at 318598510
info: Timing access to addr 11105792, rank/bank/row 1 3 21
info: activation difference: 1
info: Activate at tick 318598511
info: Precharging bank 3, rank 1 at tick 318633511, now got 0 active
info: nextReqEvent scheduled@318648510
info: no packet
info: Epoch start = 318698510, turn = 0, subTurn = 1
info: Processing req at 318698510
info: Timing access to addr 2641984, rank/bank/row 0 2 5
info: activation difference: 0
info: Activate at tick 318698510
info: Precharging bank 2, rank 0 at tick 318733510, now got 0 active
info: nextReqEvent scheduled@318748510
info: Timing access to addr 1835072, rank/bank/row 4 0 3
info: activation difference: 1
info: Epoch start = 318798510, turn = 0, subTurn = 2
info: Processing req at 318798510
info: Timing access to addr 2619264, rank/bank/row 7 7 4
info: activation difference: 1
info: Activate at tick 318798511
info: Precharging bank 7, rank 7 at tick 318833511, now got 0 active
info: nextReqEvent scheduled@318848510
info: Epoch start = 318898510, turn = 0, subTurn = 0
info: Processing req at 318898510
info: activation difference: 1
info: Activate at tick 318898511
info: Precharging bank 3, rank 1 at tick 318933511, now got 0 active
info: nextReqEvent scheduled@318948510
info: Epoch start = 318998510, turn = 0, subTurn = 1
info: Processing req at 318998510
info: nextReqEvent scheduled@319048510
info: Epoch start = 319098510, turn = 0, subTurn = 2
info: Processing req at 319098510
info: nextReqEvent scheduled@319148510
info: Epoch start = 319198510, turn = 0, subTurn = 0
info: Processing req at 319198510
info: nextReqEvent scheduled@319248510
WARNING: Command issued while in power-down mode.
Command: 0, Timestamp: 22053, Bank: 3
WARNING: Command issued while in power-down mode.
Command: 0, Timestamp: 22533, Bank: 3
WARNING: Command issued while in power-down mode.
Command: 0, Timestamp: 23493, Bank: 3
WARNING: Command issued while in power-down mode.
Command: 0, Timestamp: 24453, Bank: 3
info: Epoch start = 319298510, turn = 0, subTurn = 1
info: Processing req at 319298510
info: nextReqEvent scheduled@319348510
info: Epoch start = 319398510, turn = 0, subTurn = 2
info: Processing req at 319398510
info: nextReqEvent scheduled@319448510
info: no packet
info: Epoch start = 319498510, turn = 0, subTurn = 0
info: Processing req at 319498510
info: Timing access to addr 11105920, rank/bank/row 1 3 21
info: activation difference: 1
info: Activate at tick 319498511
info: Precharging bank 3, rank 1 at tick 319533511, now got 0 active
info: nextReqEvent scheduled@319548510
info: activation difference: 0
info: Epoch start = 319598510, turn = 0, subTurn = 1
info: Processing req at 319598510
info: Epoch start = 319698510, turn = 0, subTurn = 2
info: nextReqEvent scheduled@319748510
info: Epoch start = 319798510, turn = 0, subTurn = 0
info: Processing req at 319798510
info: nextReqEvent scheduled@319848510
info: activation difference: 1
info: Epoch start = 319898510, turn = 0, subTurn = 1
info: Processing req at 319898510
info: Epoch start = 319998510, turn = 0, subTurn = 2
info: Processing req at 319998510
info: Timing access to addr 5256384, rank/bank/row 0 1 10
info: activation difference: 1
info: Activate at tick 319998511
info: Precharging bank 1, rank 0 at tick 320033511, now got 0 active
info: nextReqEvent scheduled@320048510
info: Epoch start = 320098510, turn = 0, subTurn = 0
info: Processing req at 320098510
info: nextReqEvent scheduled@320148510
info: Epoch start = 320198510, turn = 0, subTurn = 1
info: Processing req at 320198510
info: activation difference: 0
info: Activate at tick 320198510
info: Precharging bank 2, rank 0 at tick 320233510, now got 0 active
info: nextReqEvent scheduled@320248510
info: Epoch start = 320298510, turn = 0, subTurn = 2
info: Processing req at 320298510
info: nextReqEvent scheduled@320348510
info: Epoch start = 320398510, turn = 0, subTurn = 0
info: Processing req at 320398510
info: nextReqEvent scheduled@320448510
info: Epoch start = 320498510, turn = 0, subTurn = 1
info: Processing req at 320498510
info: activation difference: 1
info: Activate at tick 320498511
info: Precharging bank 2, rank 0 at tick 320533511, now got 0 active
info: nextReqEvent scheduled@320548510
info: Epoch start = 320598510, turn = 0, subTurn = 2
info: Processing req at 320598510
info: nextReqEvent scheduled@320648510
info: Epoch start = 320698510, turn = 0, subTurn = 0
info: Processing req at 320698510
info: activation difference: 1
info: Activate at tick 320698511
info: Precharging bank 3, rank 1 at tick 320733511, now got 0 active
info: nextReqEvent scheduled@320748510
info: Epoch start = 320798510, turn = 0, subTurn = 1
info: Processing req at 320798510
info: nextReqEvent scheduled@320848510
info: Epoch start = 320898510, turn = 0, subTurn = 2
info: Processing req at 320898510
info: nextReqEvent scheduled@320948510
info: Epoch start = 320998510, turn = 0, subTurn = 0
info: Processing req at 320998510
info: activation difference: 1
info: Activate at tick 320998511
info: Precharging bank 3, rank 1 at tick 321033511, now got 0 active
info: nextReqEvent scheduled@321048510
info: Epoch start = 321098510, turn = 0, subTurn = 1
info: Processing req at 321098510
info: nextReqEvent scheduled@321148510
info: Epoch start = 321198510, turn = 0, subTurn = 2
info: Processing req at 321198510
info: nextReqEvent scheduled@321248510
info: Epoch start = 321298510, turn = 0, subTurn = 0
info: Processing req at 321298510
info: activation difference: 1
info: Activate at tick 321298511
info: Precharging bank 3, rank 1 at tick 321333511, now got 0 active
info: nextReqEvent scheduled@321348510
info: Epoch start = 321398510, turn = 0, subTurn = 1
info: Epoch start = 321498510, turn = 0, subTurn = 2
info: Epoch start = 321598510, turn = 0, subTurn = 0
info: Epoch start = 321698510, turn = 0, subTurn = 1
info: Epoch start = 321798510, turn = 0, subTurn = 2
info: Processing req at 321798510
info: Timing access to addr 5256448, rank/bank/row 0 1 10
info: activation difference: 1
info: Activate at tick 321798511
info: Precharging bank 1, rank 0 at tick 321833511, now got 0 active
info: nextReqEvent scheduled@321848510
info: Epoch start = 321898510, turn = 0, subTurn = 0
info: Processing req at 321898510
info: no packet
info: nextReqEvent scheduled@321948510
info: no packet
info: Epoch start = 321998510, turn = 0, subTurn = 1
info: Processing req at 321998510
info: Timing access to addr 2642240, rank/bank/row 0 2 5
info: activation difference: 0
info: Activate at tick 321998510
info: Precharging bank 2, rank 0 at tick 322033510, now got 0 active
info: nextReqEvent scheduled@322048510
info: activation difference: 1
info: Epoch start = 322098510, turn = 0, subTurn = 2
info: Processing req at 322098510
info: activation difference: 1
info: Activate at tick 322098511
info: Precharging bank 1, rank 0 at tick 322133511, now got 0 active
info: nextReqEvent scheduled@322148510
info: Epoch start = 322198510, turn = 0, subTurn = 0
info: Processing req at 322198510
info: activation difference: 1
info: Activate at tick 322198511
info: Precharging bank 3, rank 1 at tick 322233511, now got 0 active
info: nextReqEvent scheduled@322248510
info: Epoch start = 322298510, turn = 0, subTurn = 1
info: Processing req at 322298510
info: nextReqEvent scheduled@322348510
info: Epoch start = 322398510, turn = 0, subTurn = 2
info: Processing req at 322398510
info: nextReqEvent scheduled@322448510
info: Epoch start = 322498510, turn = 0, subTurn = 0
info: Processing req at 322498510
info: activation difference: 1
info: Activate at tick 322498511
info: Precharging bank 3, rank 1 at tick 322533511, now got 0 active
info: nextReqEvent scheduled@322548510
info: Epoch start = 322598510, turn = 0, subTurn = 1
info: Processing req at 322598510
info: nextReqEvent scheduled@322648510
info: Epoch start = 322698510, turn = 0, subTurn = 2
info: Processing req at 322698510
info: nextReqEvent scheduled@322748510
info: Epoch start = 322798510, turn = 0, subTurn = 0
info: Processing req at 322798510
info: activation difference: 1
info: Activate at tick 322798511
info: Precharging bank 3, rank 1 at tick 322833511, now got 0 active
info: nextReqEvent scheduled@322848510
info: Epoch start = 322898510, turn = 0, subTurn = 1
info: Epoch start = 322998510, turn = 0, subTurn = 2
info: nextReqEvent scheduled@323048510
info: Epoch start = 323098510, turn = 0, subTurn = 0
info: Processing req at 323098510
info: nextReqEvent scheduled@323148510
info: activation difference: 1
info: Epoch start = 323198510, turn = 0, subTurn = 1
info: Processing req at 323198510
info: Epoch start = 323298510, turn = 0, subTurn = 2
info: Processing req at 323298510
info: Timing access to addr 5256576, rank/bank/row 0 1 10
info: activation difference: 1
info: Activate at tick 323298511
info: Precharging bank 1, rank 0 at tick 323333511, now got 0 active
info: nextReqEvent scheduled@323348510
info: no packet
info: Epoch start = 323398510, turn = 0, subTurn = 0
info: Processing req at 323398510
info: no packet
info: nextReqEvent scheduled@323448510
info: no packet
info: Epoch start = 323498510, turn = 0, subTurn = 1
info: Processing req at 323498510
info: Timing access to addr 2642304, rank/bank/row 0 2 5
info: activation difference: 0
info: Activate at tick 323498510
info: Precharging bank 2, rank 0 at tick 323533510, now got 0 active
info: nextReqEvent scheduled@323548510
info: Epoch start = 323598510, turn = 0, subTurn = 2
info: Processing req at 323598510
info: nextReqEvent scheduled@323648510
info: no packet
info: Epoch start = 323698510, turn = 0, subTurn = 0
info: Processing req at 323698510
info: no packet
info: nextReqEvent scheduled@323748510
info: no packet
info: Epoch start = 323798510, turn = 0, subTurn = 1
info: Processing req at 323798510
info: Timing access to addr 2642368, rank/bank/row 0 2 5
info: activation difference: 0
info: Activate at tick 323798510
info: Precharging bank 2, rank 0 at tick 323833510, now got 0 active
info: nextReqEvent scheduled@323848510
info: activation difference: 1
info: Epoch start = 323898510, turn = 0, subTurn = 2
info: Processing req at 323898510
info: activation difference: 1
info: Activate at tick 323898511
info: Precharging bank 1, rank 0 at tick 323933511, now got 0 active
info: nextReqEvent scheduled@323948510
info: Epoch start = 323998510, turn = 0, subTurn = 0
info: Processing req at 323998510
info: activation difference: 1
info: Activate at tick 323998511
info: Precharging bank 3, rank 1 at tick 324033511, now got 0 active
info: nextReqEvent scheduled@324048510
info: Epoch start = 324098510, turn = 0, subTurn = 1
info: Processing req at 324098510
info: nextReqEvent scheduled@324148510
info: Epoch start = 324198510, turn = 0, subTurn = 2
info: Processing req at 324198510
info: nextReqEvent scheduled@324248510
info: Epoch start = 324298510, turn = 0, subTurn = 0
info: Processing req at 324298510
info: activation difference: 1
info: Activate at tick 324298511
info: Precharging bank 3, rank 1 at tick 324333511, now got 0 active
info: nextReqEvent scheduled@324348510
info: Epoch start = 324398510, turn = 0, subTurn = 1
info: Processing req at 324398510
info: nextReqEvent scheduled@324448510
info: Epoch start = 324498510, turn = 0, subTurn = 2
info: Processing req at 324498510
info: nextReqEvent scheduled@324548510
info: Epoch start = 324598510, turn = 0, subTurn = 0
info: Processing req at 324598510
info: activation difference: 1
info: Activate at tick 324598511
info: Precharging bank 3, rank 1 at tick 324633511, now got 0 active
info: nextReqEvent scheduled@324648510
info: Epoch start = 324698510, turn = 0, subTurn = 1
info: Epoch start = 324798510, turn = 0, subTurn = 2
info: Epoch start = 324898510, turn = 0, subTurn = 0
info: Epoch start = 324998510, turn = 0, subTurn = 1
info: Epoch start = 325098510, turn = 0, subTurn = 2
info: Processing req at 325098510
info: Timing access to addr 5256704, rank/bank/row 0 1 10
info: activation difference: 1
info: Activate at tick 325098511
info: Precharging bank 1, rank 0 at tick 325133511, now got 0 active
info: nextReqEvent scheduled@325148510
info: no packet
info: Epoch start = 325198510, turn = 0, subTurn = 0
info: Processing req at 325198510
info: no packet
[...]
info: Epoch start = 545998510, turn = 0, subTurn = 0
info: Processing req at 545998510
info: activation difference: 1
info: Activate at tick 545998511
info: Precharging bank 6, rank 1 at tick 546033511, now got 0 active
info: nextReqEvent scheduled@546048510
info: Epoch start = 546098510, turn = 0, subTurn = 1
info: Processing req at 546098510
info: nextReqEvent scheduled@546148510
info: Epoch start = 546198510, turn = 0, subTurn = 2
info: Processing req at 546198510
info: nextReqEvent scheduled@546248510
info: Epoch start = 546298510, turn = 0, subTurn = 0
info: Processing req at 546298510
info: activation difference: 1
info: Activate at tick 546298511
info: Precharging bank 6, rank 1 at tick 546333511, now got 0 active
info: nextReqEvent scheduled@546348510
info: Epoch start = 546398510, turn = 0, subTurn = 1
info: Processing req at 546398510
info: nextReqEvent scheduled@546448510
info: Epoch start = 546498510, turn = 0, subTurn = 2
info: Processing req at 546498510
info: nextReqEvent scheduled@546548510
info: Epoch start = 546598510, turn = 0, subTurn = 0
info: Processing req at 546598510
info: activation difference: 1
info: Activate at tick 546598511
info: Precharging bank 6, rank 1 at tick 546633511, now got 0 active
info: nextReqEvent scheduled@546648510
info: Epoch start = 546698510, turn = 0, subTurn = 1
info: Epoch start = 546798510, turn = 0, subTurn = 2
info: Epoch start = 546898510, turn = 0, subTurn = 0
info: Epoch start = 546998510, turn = 0, subTurn = 1
info: Epoch start = 547098510, turn = 0, subTurn = 2
info: Processing req at 547098510
info: Timing access to addr 2655104, rank/bank/row 0 4 5
info: activation difference: 1
info: Activate at tick 547098511
info: Precharging bank 4, rank 0 at tick 547133511, now got 0 active
info: nextReqEvent scheduled@547148510
info: no packet
info: Epoch start = 547198510, turn = 0, subTurn = 0
info: Processing req at 547198510
info: Timing access to addr 5269376, rank/bank/row 0 3 10
info: activation difference: 0
info: Activate at tick 547198510
info: Precharging bank 3, rank 0 at tick 547233510, now got 0 active
info: nextReqEvent scheduled@547248510
info: Epoch start = 547298510, turn = 0, subTurn = 1
info: Processing req at 547298510
info: nextReqEvent scheduled@547348510
info: Epoch start = 547398510, turn = 0, subTurn = 2
info: Processing req at 547398510
info: activation difference: 0
info: Activate at tick 547398510
info: Precharging bank 4, rank 0 at tick 547433510, now got 0 active
info: nextReqEvent scheduled@547448510
info: Epoch start = 547498510, turn = 0, subTurn = 0
info: Processing req at 547498510
info: activation difference: 1
info: Activate at tick 547498511
info: Precharging bank 6, rank 1 at tick 547533511, now got 0 active
info: nextReqEvent scheduled@547548510
info: Epoch start = 547598510, turn = 0, subTurn = 1
info: Processing req at 547598510
info: nextReqEvent scheduled@547648510
info: Epoch start = 547698510, turn = 0, subTurn = 2
info: Processing req at 547698510
info: nextReqEvent scheduled@547748510
info: Epoch start = 547798510, turn = 0, subTurn = 0
info: Processing req at 547798510
info: activation difference: 1
info: Activate at tick 547798511
info: Precharging bank 6, rank 1 at tick 547833511, now got 0 active
info: nextReqEvent scheduled@547848510
info: Epoch start = 547898510, turn = 0, subTurn = 1
info: Processing req at 547898510
info: nextReqEvent scheduled@547948510
info: Timing access to addr 2495040, rank/bank/row 6 0 4
info: activation difference: 1
info: Epoch start = 547998510, turn = 0, subTurn = 2
info: Processing req at 547998510
info: nextReqEvent scheduled@548048510
info: Epoch start = 548098510, turn = 0, subTurn = 0
info: Processing req at 548098510
info: activation difference: 1
info: Activate at tick 548098511
info: Precharging bank 6, rank 1 at tick 548133511, now got 0 active
info: nextReqEvent scheduled@548148510
info: Epoch start = 548198510, turn = 0, subTurn = 1
info: Epoch start = 548298510, turn = 0, subTurn = 2
info: Epoch start = 548398510, turn = 0, subTurn = 0
info: Epoch start = 548498510, turn = 0, subTurn = 1
info: Epoch start = 548598510, turn = 0, subTurn = 2
info: Processing req at 548598510
info: Timing access to addr 2655232, rank/bank/row 0 4 5
info: activation difference: 1
info: Activate at tick 548598511
info: Precharging bank 4, rank 0 at tick 548633511, now got 0 active
info: nextReqEvent scheduled@548648510
info: no packet
info: Epoch start = 548698510, turn = 0, subTurn = 0
info: Processing req at 548698510
info: Timing access to addr 5269440, rank/bank/row 0 3 10
info: activation difference: 0
info: Activate at tick 548698510
info: Precharging bank 3, rank 0 at tick 548733510, now got 0 active
info: nextReqEvent scheduled@548748510
info: Epoch start = 548798510, turn = 0, subTurn = 1
info: Processing req at 548798510
info: nextReqEvent scheduled@548848510
info: Epoch start = 548898510, turn = 0, subTurn = 2
info: Processing req at 548898510
info: nextReqEvent scheduled@548948510
info: Epoch start = 548998510, turn = 0, subTurn = 0
info: Processing req at 548998510
info: activation difference: 0
info: Activate at tick 548998510
info: Precharging bank 3, rank 0 at tick 549033510, now got 0 active
info: nextReqEvent scheduled@549048510
info: Epoch start = 549098510, turn = 0, subTurn = 1
info: Processing req at 549098510
info: nextReqEvent scheduled@549148510
info: Epoch start = 549198510, turn = 0, subTurn = 2
info: Processing req at 549198510
info: nextReqEvent scheduled@549248510
info: Epoch start = 549298510, turn = 0, subTurn = 0
info: Processing req at 549298510
info: activation difference: 1
info: Activate at tick 549298511
info: Precharging bank 6, rank 1 at tick 549333511, now got 0 active
info: nextReqEvent scheduled@549348510
info: Epoch start = 549398510, turn = 0, subTurn = 1
info: Processing req at 549398510
info: nextReqEvent scheduled@549448510
info: Epoch start = 549498510, turn = 0, subTurn = 2
info: Processing req at 549498510
info: nextReqEvent scheduled@549548510
info: Epoch start = 549598510, turn = 0, subTurn = 0
info: Processing req at 549598510
info: activation difference: 1
info: Activate at tick 549598511
info: Precharging bank 6, rank 1 at tick 549633511, now got 0 active
info: nextReqEvent scheduled@549648510
info: Epoch start = 549698510, turn = 0, subTurn = 1
info: Processing req at 549698510
info: nextReqEvent scheduled@549748510
info: Epoch start = 549798510, turn = 0, subTurn = 2
info: Processing req at 549798510
info: nextReqEvent scheduled@549848510
info: Epoch start = 549898510, turn = 0, subTurn = 0
info: Processing req at 549898510
info: activation difference: 1
info: Activate at tick 549898511
info: Precharging bank 6, rank 1 at tick 549933511, now got 0 active
info: nextReqEvent scheduled@549948510
info: Epoch start = 549998510, turn = 0, subTurn = 1
info: nextReqEvent scheduled@550048510
info: Epoch start = 550098510, turn = 0, subTurn = 2
info: Processing req at 550098510
info: nextReqEvent scheduled@550148510
info: Epoch start = 550198510, turn = 0, subTurn = 0
info: Processing req at 550198510
info: nextReqEvent scheduled@550248510
info: activation difference: 1
info: Epoch start = 550298510, turn = 0, subTurn = 1
info: Processing req at 550298510
info: Epoch start = 550398510, turn = 0, subTurn = 2
info: Processing req at 550398510
info: Timing access to addr 2655360, rank/bank/row 0 4 5
info: activation difference: 1
info: Activate at tick 550398511
info: Precharging bank 4, rank 0 at tick 550433511, now got 0 active
info: nextReqEvent scheduled@550448510
info: no packet
info: Epoch start = 550498510, turn = 0, subTurn = 0
info: Processing req at 550498510
info: Timing access to addr 5269568, rank/bank/row 0 3 10
info: activation difference: 0
info: Activate at tick 550498510
info: Precharging bank 3, rank 0 at tick 550533510, now got 0 active
info: nextReqEvent scheduled@550548510
info: no packet
info: Epoch start = 550598510, turn = 0, subTurn = 1
info: Processing req at 550598510
info: no packet
info: nextReqEvent scheduled@550648510
info: no packet
info: Epoch start = 550698510, turn = 0, subTurn = 2
info: Processing req at 550698510
info: Timing access to addr 2655296, rank/bank/row 0 4 5
info: activation difference: 0
info: Activate at tick 550698510
info: Precharging bank 4, rank 0 at tick 550733510, now got 0 active
info: nextReqEvent scheduled@550748510
info: Epoch start = 550798510, turn = 0, subTurn = 0
info: Processing req at 550798510
info: activation difference: 0
info: Activate at tick 550798510
info: Precharging bank 3, rank 0 at tick 550833510, now got 0 active
info: nextReqEvent scheduled@550848510
info: Epoch start = 550898510, turn = 0, subTurn = 1
info: Processing req at 550898510
info: nextReqEvent scheduled@550948510
info: Epoch start = 550998510, turn = 0, subTurn = 2
info: Processing req at 550998510
info: nextReqEvent scheduled@551048510
info: Epoch start = 551098510, turn = 0, subTurn = 0
info: Processing req at 551098510
info: activation difference: 1
info: Activate at tick 551098511
info: Precharging bank 6, rank 1 at tick 551133511, now got 0 active
info: nextReqEvent scheduled@551148510
info: Epoch start = 551198510, turn = 0, subTurn = 1
info: Processing req at 551198510
info: nextReqEvent scheduled@551248510
info: no packet
info: Epoch start = 551298510, turn = 0, subTurn = 2
info: Processing req at 551298510
info: Timing access to addr 2620800, rank/bank/row 7 7 4
info: activation difference: 1
info: Activate at tick 551298511
info: Precharging bank 7, rank 7 at tick 551333511, now got 0 active
info: nextReqEvent scheduled@551348510
info: Epoch start = 551398510, turn = 0, subTurn = 0
info: Processing req at 551398510
info: activation difference: 1
info: Activate at tick 551398511
info: Precharging bank 6, rank 1 at tick 551433511, now got 0 active
info: nextReqEvent scheduled@551448510
info: Epoch start = 551498510, turn = 0, subTurn = 1
info: Processing req at 551498510
info: nextReqEvent scheduled@551548510
info: Epoch start = 551598510, turn = 0, subTurn = 2
info: Processing req at 551598510
info: nextReqEvent scheduled@551648510
info: Epoch start = 551698510, turn = 0, subTurn = 0
info: Processing req at 551698510
info: activation difference: 1
info: Activate at tick 551698511
info: Precharging bank 6, rank 1 at tick 551733511, now got 0 active
info: nextReqEvent scheduled@551748510
info: Epoch start = 551798510, turn = 0, subTurn = 1
info: Epoch start = 551898510, turn = 0, subTurn = 2
info: Epoch start = 551998510, turn = 0, subTurn = 0
info: Epoch start = 552098510, turn = 0, subTurn = 1
info: Epoch start = 552198510, turn = 0, subTurn = 2
info: Processing req at 552198510
info: Timing access to addr 2655424, rank/bank/row 0 4 5
info: activation difference: 1
info: Activate at tick 552198511
info: Precharging bank 4, rank 0 at tick 552233511, now got 0 active
info: nextReqEvent scheduled@552248510
info: Epoch start = 552298510, turn = 0, subTurn = 0
info: Processing req at 552298510
info: Timing access to addr 5269696, rank/bank/row 0 3 10
info: activation difference: 0
info: Activate at tick 552298510
info: Precharging bank 3, rank 0 at tick 552333510, now got 0 active
info: nextReqEvent scheduled@552348510
info: Epoch start = 552398510, turn = 0, subTurn = 1
info: Processing req at 552398510
info: nextReqEvent scheduled@552448510
info: Epoch start = 552498510, turn = 0, subTurn = 2
info: Processing req at 552498510
info: activation difference: 0
info: Activate at tick 552498510
info: Precharging bank 4, rank 0 at tick 552533510, now got 0 active
info: nextReqEvent scheduled@552548510
info: Epoch start = 552598510, turn = 0, subTurn = 0
info: Processing req at 552598510
info: activation difference: 1
info: Activate at tick 552598511
info: Precharging bank 6, rank 1 at tick 552633511, now got 0 active
info: nextReqEvent scheduled@552648510
info: Epoch start = 552698510, turn = 0, subTurn = 1
info: Processing req at 552698510
info: nextReqEvent scheduled@552748510
info: Epoch start = 552798510, turn = 0, subTurn = 2
info: Processing req at 552798510
info: nextReqEvent scheduled@552848510
info: Epoch start = 552898510, turn = 0, subTurn = 0
info: Processing req at 552898510
info: nextReqEvent scheduled@552948510
info: Epoch start = 552998510, turn = 0, subTurn = 1
info: Processing req at 552998510
info: nextReqEvent scheduled@553048510
info: Epoch start = 553098510, turn = 0, subTurn = 2
info: Processing req at 553098510
info: nextReqEvent scheduled@553148510
info: Epoch start = 553198510, turn = 0, subTurn = 0
info: Processing req at 553198510
info: activation difference: 1
info: Activate at tick 553198511
info: Precharging bank 6, rank 1 at tick 553233511, now got 0 active
info: nextReqEvent scheduled@553248510
info: Epoch start = 553298510, turn = 0, subTurn = 1
info: Processing req at 553298510
info: nextReqEvent scheduled@553348510
info: Epoch start = 553398510, turn = 0, subTurn = 2
info: Processing req at 553398510
info: nextReqEvent scheduled@553448510
info: Epoch start = 553498510, turn = 0, subTurn = 0
info: Processing req at 553498510
info: activation difference: 1
info: Activate at tick 553498511
info: Precharging bank 6, rank 1 at tick 553533511, now got 0 active
info: nextReqEvent scheduled@553548510
info: Epoch start = 553598510, turn = 0, subTurn = 1
info: Epoch start = 553698510, turn = 0, subTurn = 2
info: nextReqEvent scheduled@553748510
info: Epoch start = 553798510, turn = 0, subTurn = 0
info: Processing req at 553798510
info: nextReqEvent scheduled@553848510
info: activation difference: 1
info: Epoch start = 553898510, turn = 0, subTurn = 1
info: Processing req at 553898510
info: Epoch start = 553998510, turn = 0, subTurn = 2
info: Processing req at 553998510
info: Timing access to addr 2655552, rank/bank/row 0 4 5
info: activation difference: 1
info: Activate at tick 553998511
info: Precharging bank 4, rank 0 at tick 554033511, now got 0 active
info: nextReqEvent scheduled@554048510
info: Epoch start = 554098510, turn = 0, subTurn = 0
info: Processing req at 554098510
info: Timing access to addr 5269760, rank/bank/row 0 3 10
info: activation difference: 0
info: Activate at tick 554098510
info: Precharging bank 3, rank 0 at tick 554133510, now got 0 active
info: nextReqEvent scheduled@554148510
info: Epoch start = 554198510, turn = 0, subTurn = 1
info: Processing req at 554198510
info: nextReqEvent scheduled@554248510
info: Epoch start = 554298510, turn = 0, subTurn = 2
info: Processing req at 554298510
info: nextReqEvent scheduled@554348510
info: Epoch start = 554398510, turn = 0, subTurn = 0
info: Processing req at 554398510
info: activation difference: 0
info: Activate at tick 554398510
info: Precharging bank 3, rank 0 at tick 554433510, now got 0 active
info: nextReqEvent scheduled@554448510
info: Epoch start = 554498510, turn = 0, subTurn = 1
info: Processing req at 554498510
info: nextReqEvent scheduled@554548510
info: Epoch start = 554598510, turn = 0, subTurn = 2
info: Processing req at 554598510
info: nextReqEvent scheduled@554648510
info: Epoch start = 554698510, turn = 0, subTurn = 0
info: Processing req at 554698510
info: activation difference: 1
info: Activate at tick 554698511
info: Precharging bank 6, rank 1 at tick 554733511, now got 0 active
info: nextReqEvent scheduled@554748510
info: Epoch start = 554798510, turn = 0, subTurn = 1
info: Processing req at 554798510
info: nextReqEvent scheduled@554848510
info: Epoch start = 554898510, turn = 0, subTurn = 2
info: Processing req at 554898510
info: nextReqEvent scheduled@554948510
info: Epoch start = 554998510, turn = 0, subTurn = 0
info: Processing req at 554998510
info: activation difference: 1
info: Activate at tick 554998511
info: Precharging bank 6, rank 1 at tick 555033511, now got 0 active
info: nextReqEvent scheduled@555048510
info: Epoch start = 555098510, turn = 0, subTurn = 1
info: Processing req at 555098510
info: nextReqEvent scheduled@555148510
info: Epoch start = 555198510, turn = 0, subTurn = 2
info: Processing req at 555198510
info: nextReqEvent scheduled@555248510
info: Epoch start = 555298510, turn = 0, subTurn = 0
info: Processing req at 555298510
info: activation difference: 1
info: Activate at tick 555298511
info: Precharging bank 6, rank 1 at tick 555333511, now got 0 active
info: nextReqEvent scheduled@555348510
info: Epoch start = 555398510, turn = 0, subTurn = 1
info: Epoch start = 555498510, turn = 0, subTurn = 2
info: Epoch start = 555598510, turn = 0, subTurn = 0
info: Epoch start = 555698510, turn = 0, subTurn = 1
info: Epoch start = 555798510, turn = 0, subTurn = 2
info: Processing req at 555798510
info: Timing access to addr 2655616, rank/bank/row 0 4 5
info: activation difference: 1
info: Activate at tick 555798511
info: Precharging bank 4, rank 0 at tick 555833511, now got 0 active
info: nextReqEvent scheduled@555848510
info: no packet
info: Epoch start = 555898510, turn = 0, subTurn = 0
info: Processing req at 555898510
info: Timing access to addr 5269888, rank/bank/row 0 3 10
info: activation difference: 0
info: Activate at tick 555898510
info: Precharging bank 3, rank 0 at tick 555933510, now got 0 active
info: nextReqEvent scheduled@555948510
info: Epoch start = 555998510, turn = 0, subTurn = 1
info: Processing req at 555998510
info: nextReqEvent scheduled@556048510
info: Epoch start = 556098510, turn = 0, subTurn = 2
info: Processing req at 556098510
info: activation difference: 0
info: Activate at tick 556098510
info: Precharging bank 4, rank 0 at tick 556133510, now got 0 active
info: nextReqEvent scheduled@556148510
info: Epoch start = 556198510, turn = 0, subTurn = 0
info: Processing req at 556198510
info: activation difference: 1
info: Activate at tick 556198511
info: Precharging bank 3, rank 0 at tick 556233511, now got 0 active
info: nextReqEvent scheduled@556248510
info: Epoch start = 556298510, turn = 0, subTurn = 1
info: Processing req at 556298510
info: no packet
info: nextReqEvent scheduled@556348510
info: Timing access to addr 2495104, rank/bank/row 6 0 4
info: activation difference: 1
info: Epoch start = 556398510, turn = 0, subTurn = 2
info: Processing req at 556398510
info: nextReqEvent scheduled@556448510
info: Epoch start = 556498510, turn = 0, subTurn = 0
info: Processing req at 556498510
info: activation difference: 1
info: Activate at tick 556498511
info: Precharging bank 6, rank 1 at tick 556533511, now got 0 active
info: nextReqEvent scheduled@556548510
info: Epoch start = 556598510, turn = 0, subTurn = 1
info: Processing req at 556598510
info: nextReqEvent scheduled@556648510
info: Epoch start = 556698510, turn = 0, subTurn = 2
info: Processing req at 556698510
info: nextReqEvent scheduled@556748510
info: Epoch start = 556798510, turn = 0, subTurn = 0
info: Processing req at 556798510
info: activation difference: 1
info: Activate at tick 556798511
info: Precharging bank 6, rank 1 at tick 556833511, now got 0 active
info: nextReqEvent scheduled@556848510
info: Epoch start = 556898510, turn = 0, subTurn = 1
info: Processing req at 556898510
info: nextReqEvent scheduled@556948510
info: Epoch start = 556998510, turn = 0, subTurn = 2
info: Processing req at 556998510
info: nextReqEvent scheduled@557048510
info: Epoch start = 557098510, turn = 0, subTurn = 0
info: Processing req at 557098510
info: activation difference: 1
info: Activate at tick 557098511
info: Precharging bank 6, rank 1 at tick 557133511, now got 0 active
info: nextReqEvent scheduled@557148510
info: Epoch start = 557198510, turn = 0, subTurn = 1
info: Epoch start = 557298510, turn = 0, subTurn = 2
info: Epoch start = 557398510, turn = 0, subTurn = 0
Exiting core 1 @ tick 557459500 because a thread reached the max instruction count
WARNING: Command issued while in power-down mode.
Command: 0, Timestamp: 213333, Bank: 6
WARNING: Command issued while in power-down mode.
Command: 0, Timestamp: 215013, Bank: 6
Exiting @ tick 557459500 because a thread reached the max instruction count
