[3J[H[2Jgem5 Simulator System.  http://gem5.org
gem5 is copyrighted software; use the --copyright option for details.

gem5 compiled Nov  1 2017 13:00:35
gem5 started Nov  1 2017 13:05:21
gem5 executing on cse-HP-ProDesk-600-G3-SFF, pid 23885
command line: ./build/X86/gem5.opt --stats-file=mcf-lbm_bta.txt ./configs/example/se.py -n 2 --caches --l2cache --mem-size=4GB --mem-channels=1 --mem-ranks=8 --cpu-type=DerivO3CPU -F 25000 -I 25000 --bench mcf-lbm

executable= /home/prakhar/SPEC2006_X86/binaries/mcf 
inputs_dir = /home/prakhar/SPEC2006_X86/data/mcf/ref/input 
outputs_dir = /home/prakhar/SPEC2006_X86/data/mcf/ref/output 
executable= /home/prakhar/SPEC2006_X86/binaries/lbm 
inputs_dir = /home/prakhar/SPEC2006_X86/data/lbm/ref/input 
outputs_dir = /home/prakhar/SPEC2006_X86/data/lbm/ref/output 
Global frequency set at 1000000000000 ticks per second
warn: DRAM device capacity (32768 Mbytes) does not match the address range assigned (4096 Mbytes)
0: system.remote_gdb.listener: listening for remote gdb #0 on port 7000
0: system.remote_gdb.listener: listening for remote gdb #1 on port 7001
Switch at instruction count:25000
info: Entering event queue @ 0.  Starting simulation...
Switched CPUS @ tick 25840000
switching cpus
info: Entering event queue @ 25840000.  Starting simulation...
**** REAL SIMULATION ****
info: Entering event queue @ 25840500.  Starting simulation...
info: Epoch start = 25881510, turn = 0, subTurn = 1
info: Processing req at 25881510
info: no packet
info: nextReqEvent scheduled@25906510
info: Timing access to addr 857408, rank/bank/row 5 0 1
info: Epoch start = 25931510, turn = 0, subTurn = 2
info: Processing req at 25931510
info: no packet
info: nextReqEvent scheduled@25956510
info: Timing access to addr 1759554240, rank/bank/row 0 5 3356
info: Epoch start = 25981510, turn = 0, subTurn = 0
info: Processing req at 25981510
info: Timing access to addr 267584, rank/bank/row 4 0 0
info: Activate at tick 25981510
info: Precharging bank 0, rank 4 at tick 26016510, now got 0 active
info: nextReqEvent scheduled@26006510
info: no packet
info: Epoch start = 26031510, turn = 0, subTurn = 1
info: Processing req at 26031510
info: Timing access to addr 42944, rank/bank/row 0 5 0
info: Activate at tick 26031510
info: Precharging bank 5, rank 0 at tick 26066510, now got 0 active
info: nextReqEvent scheduled@26056510
info: Timing access to addr 1762754304, rank/bank/row 1 3 3362
info: Epoch start = 26081510, turn = 0, subTurn = 2
info: Processing req at 26081510
info: Timing access to addr 628480, rank/bank/row 1 4 1
info: Activate at tick 26081510
info: Precharging bank 4, rank 1 at tick 26116510, now got 0 active
info: nextReqEvent scheduled@26106510
info: Timing access to addr 1759554304, rank/bank/row 0 5 3356
info: Epoch start = 26131510, turn = 0, subTurn = 0
info: Processing req at 26131510
info: no packet
info: nextReqEvent scheduled@26156510
info: no packet
info: Epoch start = 26181510, turn = 0, subTurn = 1
info: Processing req at 26181510
info: Timing access to addr 216384, rank/bank/row 3 2 0
info: Activate at tick 26181510
info: Precharging bank 2, rank 3 at tick 26216510, now got 0 active
info: nextReqEvent scheduled@26206510
info: Timing access to addr 1762754432, rank/bank/row 1 3 3362
info: Epoch start = 26231510, turn = 0, subTurn = 2
info: Processing req at 26231510
info: no packet
info: nextReqEvent scheduled@26256510
info: Timing access to addr 1759554368, rank/bank/row 0 5 3356
info: Epoch start = 26281510, turn = 0, subTurn = 0
info: Processing req at 26281510
info: Timing access to addr 265664, rank/bank/row 4 0 0
info: Activate at tick 26281511
info: Precharging bank 0, rank 4 at tick 26316511, now got 0 active
info: nextReqEvent scheduled@26306510
info: no packet
info: Epoch start = 26331510, turn = 0, subTurn = 1
info: Processing req at 26331510
info: Timing access to addr 217088, rank/bank/row 3 2 0
info: Activate at tick 26331510
info: Precharging bank 2, rank 3 at tick 26366510, now got 0 active
info: nextReqEvent scheduled@26356510
info: Timing access to addr 857472, rank/bank/row 5 0 1
info: Epoch start = 26381510, turn = 0, subTurn = 2
info: Processing req at 26381510
info: no packet
info: nextReqEvent scheduled@26406510
info: Timing access to addr 1759554432, rank/bank/row 0 5 3356
info: Epoch start = 26431510, turn = 0, subTurn = 0
info: Processing req at 26431510
info: Timing access to addr 269376, rank/bank/row 4 0 0
info: Activate at tick 26431510
info: Precharging bank 0, rank 4 at tick 26466510, now got 0 active
info: nextReqEvent scheduled@26456510
info: Timing access to addr 1762754624, rank/bank/row 1 4 3362
info: Epoch start = 26481510, turn = 0, subTurn = 1
info: Processing req at 26481510
info: Timing access to addr 4630464, rank/bank/row 6 5 8
info: Activate at tick 26481510
info: Precharging bank 5, rank 6 at tick 26516510, now got 0 active
info: nextReqEvent scheduled@26506510
info: no packet
info: Epoch start = 26531510, turn = 0, subTurn = 2
info: Processing req at 26531510
info: no packet
info: nextReqEvent scheduled@26556510
info: Timing access to addr 1759554496, rank/bank/row 0 5 3356
info: Epoch start = 26581510, turn = 0, subTurn = 0
info: Processing req at 26581510
info: Timing access to addr 263296, rank/bank/row 4 0 0
info: Activate at tick 26581510
info: Precharging bank 0, rank 4 at tick 26616510, now got 0 active
info: nextReqEvent scheduled@26606510
info: no packet
info: Epoch start = 26631510, turn = 0, subTurn = 1
info: Processing req at 26631510
info: no packet
info: nextReqEvent scheduled@26656510
info: no packet
info: Epoch start = 26681510, turn = 0, subTurn = 2
info: Processing req at 26681510
info: no packet
info: nextReqEvent scheduled@26706510
info: Timing access to addr 1759554560, rank/bank/row 0 5 3356
info: Epoch start = 26731510, turn = 0, subTurn = 0
info: Processing req at 26731510
info: Timing access to addr 7744, rank/bank/row 0 0 0
info: Activate at tick 26731510
info: Precharging bank 0, rank 0 at tick 26766510, now got 0 active
info: nextReqEvent scheduled@26756510
info: Timing access to addr 1762754752, rank/bank/row 1 4 3362
info: Epoch start = 26781510, turn = 0, subTurn = 1
info: Processing req at 26781510
info: no packet
info: nextReqEvent scheduled@26806510
info: no packet
info: Epoch start = 26831510, turn = 0, subTurn = 2
info: Processing req at 26831510
info: no packet
info: nextReqEvent scheduled@26856510
info: Timing access to addr 1759554624, rank/bank/row 0 5 3356
info: Epoch start = 26881510, turn = 0, subTurn = 0
info: Processing req at 26881510
info: Timing access to addr 2016192, rank/bank/row 6 6 3
info: Activate at tick 26881510
info: Precharging bank 6, rank 6 at tick 26916510, now got 0 active
info: nextReqEvent scheduled@26906510
info: Epoch start = 26931510, turn = 0, subTurn = 1
info: Processing req at 26931510
info: nextReqEvent scheduled@26956510
info: no packet
info: Epoch start = 26981510, turn = 0, subTurn = 2
info: Processing req at 26981510
info: no packet
info: nextReqEvent scheduled@27006510
info: Timing access to addr 1759554688, rank/bank/row 0 5 3356
info: Epoch start = 27031510, turn = 0, subTurn = 0
info: Processing req at 27031510
info: Activate at tick 27031510
info: Precharging bank 6, rank 6 at tick 27066510, now got 0 active
info: nextReqEvent scheduled@27056510
info: Epoch start = 27081510, turn = 0, subTurn = 1
info: nextReqEvent scheduled@27106510
info: no packet
info: Epoch start = 27131510, turn = 0, subTurn = 2
info: Processing req at 27131510
info: no packet
info: nextReqEvent scheduled@27156510
info: Timing access to addr 1759554752, rank/bank/row 0 5 3356
info: Epoch start = 27181510, turn = 0, subTurn = 0
info: Processing req at 27181510
info: no packet
info: nextReqEvent scheduled@27206510
info: Timing access to addr 1762754944, rank/bank/row 1 4 3362
info: Epoch start = 27231510, turn = 0, subTurn = 1
info: Processing req at 27231510
info: Activate at tick 27231511
info: Precharging bank 5, rank 6 at tick 27266511, now got 0 active
info: nextReqEvent scheduled@27256510
info: Epoch start = 27281510, turn = 0, subTurn = 2
info: Processing req at 27281510
info: nextReqEvent scheduled@27306510
info: Epoch start = 27331510, turn = 0, subTurn = 0
info: Processing req at 27331510
info: nextReqEvent scheduled@27356510
info: Epoch start = 27381510, turn = 0, subTurn = 1
info: Processing req at 27381510
info: Activate at tick 27381510
info: Precharging bank 5, rank 7 at tick 27416510, now got 0 active
info: nextReqEvent scheduled@27406510
info: no packet
info: Epoch start = 27431510, turn = 0, subTurn = 2
info: Processing req at 27431510
info: no packet
info: nextReqEvent scheduled@27456510
info: Timing access to addr 1759554880, rank/bank/row 0 5 3356
info: Epoch start = 27481510, turn = 0, subTurn = 0
info: Processing req at 27481510
info: no packet
info: nextReqEvent scheduled@27506510
info: Timing access to addr 1762755072, rank/bank/row 1 4 3362
info: Epoch start = 27531510, turn = 0, subTurn = 1
info: Processing req at 27531510
info: Timing access to addr 10466944, rank/bank/row 7 5 19
info: Activate at tick 27531511
info: Precharging bank 5, rank 7 at tick 27566511, now got 0 active
info: nextReqEvent scheduled@27556510
info: no packet
info: Epoch start = 27581510, turn = 0, subTurn = 2
info: Processing req at 27581510
info: Timing access to addr 80576, rank/bank/row 1 1 0
info: Activate at tick 27581510
info: Precharging bank 1, rank 1 at tick 27616510, now got 0 active
info: nextReqEvent scheduled@27606510
info: Timing access to addr 1759554944, rank/bank/row 0 5 3356
info: Epoch start = 27631510, turn = 0, subTurn = 0
info: Processing req at 27631510
info: no packet
info: nextReqEvent scheduled@27656510
info: no packet
info: Epoch start = 27681510, turn = 0, subTurn = 1
info: Processing req at 27681510
info: Timing access to addr 2007168, rank/bank/row 6 5 3
info: Activate at tick 27681511
info: Precharging bank 5, rank 6 at tick 27716511, now got 0 active
info: nextReqEvent scheduled@27706510
info: no packet
info: Epoch start = 27731510, turn = 0, subTurn = 2
info: Processing req at 27731510
info: Timing access to addr 80640, rank/bank/row 1 1 0
info: Activate at tick 27731511
info: Precharging bank 1, rank 1 at tick 27766511, now got 0 active
info: nextReqEvent scheduled@27756510
info: Timing access to addr 1759555008, rank/bank/row 0 5 3356
info: Epoch start = 27781510, turn = 0, subTurn = 0
info: Processing req at 27781510
info: no packet
info: nextReqEvent scheduled@27806510
info: no packet
info: Epoch start = 27831510, turn = 0, subTurn = 1
info: Processing req at 27831510
info: Timing access to addr 10467008, rank/bank/row 7 5 19
info: Activate at tick 27831511
info: Precharging bank 5, rank 7 at tick 27866511, now got 0 active
info: nextReqEvent scheduled@27856510
info: no packet
info: Epoch start = 27881510, turn = 0, subTurn = 2
info: Processing req at 27881510
info: no packet
info: nextReqEvent scheduled@27906510
info: Timing access to addr 1759555072, rank/bank/row 0 5 3356
info: Epoch start = 27931510, turn = 0, subTurn = 0
info: Processing req at 27931510
info: no packet
info: nextReqEvent scheduled@27956510
info: Timing access to addr 1762755264, rank/bank/row 1 4 3362
info: Epoch start = 27981510, turn = 0, subTurn = 1
info: Processing req at 27981510
info: Timing access to addr 2007232, rank/bank/row 6 5 3
info: Activate at tick 27981510
info: Precharging bank 5, rank 6 at tick 28016510, now got 0 active
info: nextReqEvent scheduled@28006510
info: no packet
info: Epoch start = 28031510, turn = 0, subTurn = 2
info: Processing req at 28031510
info: no packet
info: nextReqEvent scheduled@28056510
info: Timing access to addr 1759555136, rank/bank/row 0 5 3356
info: Epoch start = 28081510, turn = 0, subTurn = 0
info: Processing req at 28081510
info: Timing access to addr 896, rank/bank/row 0 0 0
info: Activate at tick 28081510
info: Precharging bank 0, rank 0 at tick 28116510, now got 0 active
info: nextReqEvent scheduled@28106510
info: no packet
info: Epoch start = 28131510, turn = 0, subTurn = 1
info: Processing req at 28131510
info: Timing access to addr 19648, rank/bank/row 0 2 0
info: Activate at tick 28131510
info: Precharging bank 2, rank 0 at tick 28166510, now got 0 active
info: nextReqEvent scheduled@28156510
info: no packet
info: Epoch start = 28181510, turn = 0, subTurn = 2
info: Processing req at 28181510
info: no packet
info: nextReqEvent scheduled@28206510
info: Timing access to addr 1759555200, rank/bank/row 0 5 3356
info: Epoch start = 28231510, turn = 0, subTurn = 0
info: Processing req at 28231510
info: Timing access to addr 264512, rank/bank/row 4 0 0
info: Activate at tick 28231511
info: Precharging bank 0, rank 4 at tick 28266511, now got 0 active
info: nextReqEvent scheduled@28256510
info: Timing access to addr 1762755392, rank/bank/row 1 4 3362
info: Epoch start = 28281510, turn = 0, subTurn = 1
info: Processing req at 28281510
info: Timing access to addr 89216, rank/bank/row 1 2 0
info: Activate at tick 28281510
info: Precharging bank 2, rank 1 at tick 28316510, now got 0 active
info: nextReqEvent scheduled@28306510
info: no packet
info: Epoch start = 28331510, turn = 0, subTurn = 2
info: Processing req at 28331510
info: no packet
info: nextReqEvent scheduled@28356510
info: Timing access to addr 1759555264, rank/bank/row 0 5 3356
info: Epoch start = 28381510, turn = 0, subTurn = 0
info: Processing req at 28381510
info: Timing access to addr 263104, rank/bank/row 4 0 0
info: Activate at tick 28381510
info: Precharging bank 0, rank 4 at tick 28416510, now got 0 active
info: nextReqEvent scheduled@28406510
info: no packet
info: Epoch start = 28431510, turn = 0, subTurn = 1
info: Processing req at 28431510
info: Timing access to addr 48448, rank/bank/row 0 5 0
info: Activate at tick 28431510
info: Precharging bank 5, rank 0 at tick 28466510, now got 0 active
info: nextReqEvent scheduled@28456510
info: no packet
info: Epoch start = 28481510, turn = 0, subTurn = 2
info: Processing req at 28481510
info: no packet
info: nextReqEvent scheduled@28506510
info: Timing access to addr 1759555328, rank/bank/row 0 5 3356
info: Epoch start = 28531510, turn = 0, subTurn = 0
info: Processing req at 28531510
info: Timing access to addr 264384, rank/bank/row 4 0 0
info: Activate at tick 28531510
info: Precharging bank 0, rank 4 at tick 28566510, now got 0 active
info: nextReqEvent scheduled@28556510
info: no packet
info: Epoch start = 28581510, turn = 0, subTurn = 1
info: Processing req at 28581510
info: Timing access to addr 281536, rank/bank/row 4 2 0
info: Activate at tick 28581510
info: Precharging bank 2, rank 4 at tick 28616510, now got 0 active
info: nextReqEvent scheduled@28606510
info: no packet
info: Epoch start = 28631510, turn = 0, subTurn = 2
info: Processing req at 28631510
info: no packet
info: nextReqEvent scheduled@28656510
info: Timing access to addr 1759555392, rank/bank/row 0 5 3356
info: Epoch start = 28681510, turn = 0, subTurn = 0
info: Processing req at 28681510
info: Timing access to addr 264960, rank/bank/row 4 0 0
info: Activate at tick 28681510
info: Precharging bank 0, rank 4 at tick 28716510, now got 0 active
info: nextReqEvent scheduled@28706510
info: Timing access to addr 1762755584, rank/bank/row 1 4 3362
info: Epoch start = 28731510, turn = 0, subTurn = 1
info: Processing req at 28731510
info: Timing access to addr 281984, rank/bank/row 4 2 0
info: Activate at tick 28731510
info: Precharging bank 2, rank 4 at tick 28766510, now got 0 active
info: nextReqEvent scheduled@28756510
info: no packet
info: Epoch start = 28781510, turn = 0, subTurn = 2
info: Processing req at 28781510
info: no packet
info: nextReqEvent scheduled@28806510
info: Timing access to addr 1759555456, rank/bank/row 0 5 3356
info: Epoch start = 28831510, turn = 0, subTurn = 0
info: Processing req at 28831510
info: Timing access to addr 265728, rank/bank/row 4 0 0
info: Activate at tick 28831510
info: Precharging bank 0, rank 4 at tick 28866510, now got 0 active
info: nextReqEvent scheduled@28856510
info: Epoch start = 28881510, turn = 0, subTurn = 1
info: Processing req at 28881510
info: nextReqEvent scheduled@28906510
info: no packet
info: Epoch start = 28931510, turn = 0, subTurn = 2
info: Processing req at 28931510
info: no packet
info: nextReqEvent scheduled@28956510
info: Timing access to addr 1759555520, rank/bank/row 0 5 3356
info: Epoch start = 28981510, turn = 0, subTurn = 0
info: Processing req at 28981510
info: Timing access to addr 267648, rank/bank/row 4 0 0
info: Activate at tick 28981510
info: Precharging bank 0, rank 4 at tick 29016510, now got 0 active
info: nextReqEvent scheduled@29006510
info: Timing access to addr 1762755712, rank/bank/row 1 4 3362
info: Epoch start = 29031510, turn = 0, subTurn = 1
info: Processing req at 29031510
info: Timing access to addr 217152, rank/bank/row 3 2 0
info: Activate at tick 29031511
info: Precharging bank 2, rank 3 at tick 29066511, now got 0 active
info: nextReqEvent scheduled@29056510
info: no packet
info: Epoch start = 29081510, turn = 0, subTurn = 2
info: Processing req at 29081510
info: no packet
info: nextReqEvent scheduled@29106510
info: Timing access to addr 1759555584, rank/bank/row 0 5 3356
info: Epoch start = 29131510, turn = 0, subTurn = 0
info: Processing req at 29131510
info: Activate at tick 29131510
info: Precharging bank 0, rank 4 at tick 29166510, now got 0 active
info: nextReqEvent scheduled@29156510
info: Epoch start = 29181510, turn = 0, subTurn = 1
info: nextReqEvent scheduled@29206510
info: Epoch start = 29231510, turn = 0, subTurn = 2
info: Processing req at 29231510
info: nextReqEvent scheduled@29256510
info: Epoch start = 29281510, turn = 0, subTurn = 0
info: Processing req at 29281510
info: Timing access to addr 2016320, rank/bank/row 6 6 3
info: Activate at tick 29281511
info: Precharging bank 6, rank 6 at tick 29316511, now got 0 active
info: nextReqEvent scheduled@29306510
info: Epoch start = 29331510, turn = 0, subTurn = 1
info: Processing req at 29331510
info: Activate at tick 29331510
info: Precharging bank 5, rank 6 at tick 29366510, now got 0 active
info: nextReqEvent scheduled@29356510
info: no packet
info: Epoch start = 29381510, turn = 0, subTurn = 2
info: Processing req at 29381510
info: no packet
info: nextReqEvent scheduled@29406510
info: Timing access to addr 1759555712, rank/bank/row 0 5 3356
info: Epoch start = 29431510, turn = 0, subTurn = 0
info: Processing req at 29431510
info: Timing access to addr 2016384, rank/bank/row 6 6 3
info: Activate at tick 29431510
info: Precharging bank 6, rank 6 at tick 29466510, now got 0 active
info: nextReqEvent scheduled@29456510
info: Epoch start = 29481510, turn = 0, subTurn = 1
info: Processing req at 29481510
info: nextReqEvent scheduled@29506510
info: Epoch start = 29531510, turn = 0, subTurn = 2
info: Processing req at 29531510
info: no packet
info: nextReqEvent scheduled@29556510
info: Timing access to addr 1759555776, rank/bank/row 0 5 3356
info: Epoch start = 29581510, turn = 0, subTurn = 0
info: Processing req at 29581510
info: nextReqEvent scheduled@29606510
info: Epoch start = 29631510, turn = 0, subTurn = 1
info: Processing req at 29631510
info: Activate at tick 29631511
info: Precharging bank 5, rank 7 at tick 29666511, now got 0 active
info: nextReqEvent scheduled@29656510
info: no packet
info: Epoch start = 29681510, turn = 0, subTurn = 2
info: Processing req at 29681510
info: no packet
info: nextReqEvent scheduled@29706510
info: Timing access to addr 1759555840, rank/bank/row 0 5 3356
info: Epoch start = 29731510, turn = 0, subTurn = 0
info: Processing req at 29731510
info: no packet
info: nextReqEvent scheduled@29756510
info: Timing access to addr 1762756032, rank/bank/row 1 4 3362
info: Epoch start = 29781510, turn = 0, subTurn = 1
info: Processing req at 29781510
info: Activate at tick 29781511
info: Precharging bank 5, rank 7 at tick 29816511, now got 0 active
info: nextReqEvent scheduled@29806510
info: Epoch start = 29831510, turn = 0, subTurn = 2
info: Processing req at 29831510
info: nextReqEvent scheduled@29856510
info: Epoch start = 29881510, turn = 0, subTurn = 0
info: Processing req at 29881510
info: nextReqEvent scheduled@29906510
info: Epoch start = 29931510, turn = 0, subTurn = 1
info: Processing req at 29931510
info: Activate at tick 29931511
info: Precharging bank 5, rank 7 at tick 29966511, now got 0 active
info: nextReqEvent scheduled@29956510
info: Epoch start = 29981510, turn = 0, subTurn = 2
info: Processing req at 29981510
info: nextReqEvent scheduled@30006510
info: Epoch start = 30031510, turn = 0, subTurn = 0
info: Processing req at 30031510
info: Epoch start = 30081510, turn = 0, subTurn = 1
info: Processing req at 30081510
info: nextReqEvent scheduled@30106510
info: no packet
info: Epoch start = 30131510, turn = 0, subTurn = 2
info: Processing req at 30131510
info: no packet
info: nextReqEvent scheduled@30156510
info: Timing access to addr 1759556032, rank/bank/row 0 5 3356
info: Epoch start = 30181510, turn = 0, subTurn = 0
info: Processing req at 30181510
info: Timing access to addr 960, rank/bank/row 0 0 0
info: Activate at tick 30181510
info: Precharging bank 0, rank 0 at tick 30216510, now got 0 active
info: nextReqEvent scheduled@30206510
info: Epoch start = 30231510, turn = 0, subTurn = 1
info: Processing req at 30231510
info: nextReqEvent scheduled@30256510
info: Epoch start = 30281510, turn = 0, subTurn = 2
info: Processing req at 30281510
info: nextReqEvent scheduled@30306510
info: Epoch start = 30331510, turn = 0, subTurn = 0
info: Processing req at 30331510
info: Epoch start = 30381510, turn = 0, subTurn = 1
info: nextReqEvent scheduled@30406510
info: no packet
info: Epoch start = 30431510, turn = 0, subTurn = 2
info: Processing req at 30431510
info: no packet
info: nextReqEvent scheduled@30456510
info: Timing access to addr 1759556160, rank/bank/row 0 5 3356
info: Epoch start = 30481510, turn = 0, subTurn = 0
info: Processing req at 30481510
info: nextReqEvent scheduled@30506510
info: Epoch start = 30531510, turn = 0, subTurn = 1
info: Processing req at 30531510
info: nextReqEvent scheduled@30556510
info: no packet
info: Epoch start = 30581510, turn = 0, subTurn = 2
info: Processing req at 30581510
info: no packet
info: nextReqEvent scheduled@30606510
info: Timing access to addr 1759556224, rank/bank/row 0 5 3356
info: Epoch start = 30631510, turn = 0, subTurn = 0
info: Processing req at 30631510
info: Timing access to addr 267712, rank/bank/row 4 0 0
info: Activate at tick 30631511
info: Precharging bank 0, rank 4 at tick 30666511, now got 0 active
info: nextReqEvent scheduled@30656510
info: no packet
info: Epoch start = 30681510, turn = 0, subTurn = 1
info: Processing req at 30681510
info: Timing access to addr 4630656, rank/bank/row 6 5 8
info: Activate at tick 30681511
info: Precharging bank 5, rank 6 at tick 30716511, now got 0 active
info: nextReqEvent scheduled@30706510
info: no packet
info: Epoch start = 30731510, turn = 0, subTurn = 2
info: Processing req at 30731510
info: no packet
info: nextReqEvent scheduled@30756510
info: Timing access to addr 1759556288, rank/bank/row 0 5 3356
info: Epoch start = 30781510, turn = 0, subTurn = 0
info: Processing req at 30781510
info: Activate at tick 30781510
info: Precharging bank 6, rank 6 at tick 30816510, now got 0 active
info: nextReqEvent scheduled@30806510
info: Epoch start = 30831510, turn = 0, subTurn = 1
info: nextReqEvent scheduled@30856510
info: no packet
info: Epoch start = 30881510, turn = 0, subTurn = 2
info: Processing req at 30881510
info: no packet
info: nextReqEvent scheduled@30906510
info: Timing access to addr 1759556352, rank/bank/row 0 5 3356
info: Epoch start = 30931510, turn = 0, subTurn = 0
info: Processing req at 30931510
info: no packet
info: nextReqEvent scheduled@30956510
info: Timing access to addr 1762756544, rank/bank/row 1 4 3362
info: Epoch start = 30981510, turn = 0, subTurn = 1
info: Processing req at 30981510
info: Activate at tick 30981511
info: Precharging bank 5, rank 6 at tick 31016511, now got 0 active
info: nextReqEvent scheduled@31006510
info: Epoch start = 31031510, turn = 0, subTurn = 2
info: Processing req at 31031510
info: nextReqEvent scheduled@31056510
info: Epoch start = 31081510, turn = 0, subTurn = 0
info: Processing req at 31081510
info: nextReqEvent scheduled@31106510
info: Epoch start = 31131510, turn = 0, subTurn = 1
info: Processing req at 31131510
info: Activate at tick 31131511
info: Precharging bank 5, rank 7 at tick 31166511, now got 0 active
info: nextReqEvent scheduled@31156510
info: no packet
info: Epoch start = 31181510, turn = 0, subTurn = 2
info: Processing req at 31181510
info: no packet
info: nextReqEvent scheduled@31206510
info: Timing access to addr 1759556480, rank/bank/row 0 5 3356
info: Epoch start = 31231510, turn = 0, subTurn = 0
info: Processing req at 31231510
info: no packet
info: nextReqEvent scheduled@31256510
info: Timing access to addr 1762756672, rank/bank/row 1 4 3362
info: Epoch start = 31281510, turn = 0, subTurn = 1
info: Processing req at 31281510
info: Activate at tick 31281511
info: Precharging bank 5, rank 7 at tick 31316511, now got 0 active
info: nextReqEvent scheduled@31306510
info: Epoch start = 31331510, turn = 0, subTurn = 2
info: Processing req at 31331510
info: nextReqEvent scheduled@31356510
info: Epoch start = 31381510, turn = 0, subTurn = 0
info: Processing req at 31381510
info: no packet
info: nextReqEvent scheduled@31406510
info: no packet
info: Epoch start = 31431510, turn = 0, subTurn = 1
info: Processing req at 31431510
info: Timing access to addr 10467392, rank/bank/row 7 5 19
info: Activate at tick 31431511
info: Precharging bank 5, rank 7 at tick 31466511, now got 0 active
info: nextReqEvent scheduled@31456510
info: no packet
info: Epoch start = 31481510, turn = 0, subTurn = 2
info: Processing req at 31481510
info: no packet
info: nextReqEvent scheduled@31506510
info: Timing access to addr 1759556608, rank/bank/row 0 5 3356
info: Epoch start = 31531510, turn = 0, subTurn = 0
info: Processing req at 31531510
info: nextReqEvent scheduled@31556510
info: Epoch start = 31581510, turn = 0, subTurn = 1
info: Processing req at 31581510
info: Activate at tick 31581510
info: Precharging bank 2, rank 0 at tick 31616510, now got 0 active
info: nextReqEvent scheduled@31606510
info: no packet
info: Epoch start = 31631510, turn = 0, subTurn = 2
info: Processing req at 31631510
info: no packet
info: nextReqEvent scheduled@31656510
info: Timing access to addr 1759556672, rank/bank/row 0 5 3356
info: Epoch start = 31681510, turn = 0, subTurn = 0
info: Processing req at 31681510
info: nextReqEvent scheduled@31706510
info: Epoch start = 31731510, turn = 0, subTurn = 1
info: Processing req at 31731510
info: nextReqEvent scheduled@31756510
info: Epoch start = 31781510, turn = 0, subTurn = 2
info: Processing req at 31781510
info: nextReqEvent scheduled@31806510
info: Epoch start = 31831510, turn = 0, subTurn = 0
info: Processing req at 31831510
info: Epoch start = 31881510, turn = 0, subTurn = 1
info: nextReqEvent scheduled@31906510
info: Epoch start = 31931510, turn = 0, subTurn = 2
info: Processing req at 31931510
info: nextReqEvent scheduled@31956510
info: Epoch start = 31981510, turn = 0, subTurn = 0
info: Processing req at 31981510
info: Epoch start = 32031510, turn = 0, subTurn = 1
info: nextReqEvent scheduled@32056510
info: no packet
info: Epoch start = 32081510, turn = 0, subTurn = 2
info: Processing req at 32081510
info: no packet
info: nextReqEvent scheduled@32106510
info: Timing access to addr 1759556864, rank/bank/row 0 5 3356
info: Epoch start = 32131510, turn = 0, subTurn = 0
info: Processing req at 32131510
info: Timing access to addr 656832, rank/bank/row 2 0 1
info: Activate at tick 32131510
info: Precharging bank 0, rank 2 at tick 32166510, now got 0 active
info: nextReqEvent scheduled@32156510
info: no packet
info: Epoch start = 32181510, turn = 0, subTurn = 1
info: Processing req at 32181510
info: Timing access to addr 4630784, rank/bank/row 6 5 8
info: Activate at tick 32181511
info: Precharging bank 5, rank 6 at tick 32216511, now got 0 active
info: nextReqEvent scheduled@32206510
info: no packet
info: Epoch start = 32231510, turn = 0, subTurn = 2
info: Processing req at 32231510
info: no packet
info: nextReqEvent scheduled@32256510
info: Timing access to addr 1759556928, rank/bank/row 0 5 3356
info: Epoch start = 32281510, turn = 0, subTurn = 0
info: Processing req at 32281510
info: Timing access to addr 2016512, rank/bank/row 6 6 3
info: Activate at tick 32281510
info: Precharging bank 6, rank 6 at tick 32316510, now got 0 active
info: nextReqEvent scheduled@32306510
info: Epoch start = 32331510, turn = 0, subTurn = 1
info: Processing req at 32331510
info: nextReqEvent scheduled@32356510
info: no packet
info: Epoch start = 32381510, turn = 0, subTurn = 2
info: Processing req at 32381510
info: no packet
info: nextReqEvent scheduled@32406510
info: Timing access to addr 1759556992, rank/bank/row 0 5 3356
info: Epoch start = 32431510, turn = 0, subTurn = 0
info: Processing req at 32431510
info: Activate at tick 32431510
info: Precharging bank 6, rank 6 at tick 32466510, now got 0 active
info: nextReqEvent scheduled@32456510
info: Epoch start = 32481510, turn = 0, subTurn = 1
info: nextReqEvent scheduled@32506510
info: Epoch start = 32531510, turn = 0, subTurn = 2
info: Processing req at 32531510
info: no packet
info: nextReqEvent scheduled@32556510
info: Timing access to addr 1759557056, rank/bank/row 0 5 3356
info: Epoch start = 32581510, turn = 0, subTurn = 0
info: Processing req at 32581510
info: nextReqEvent scheduled@32606510
info: Epoch start = 32631510, turn = 0, subTurn = 1
info: Processing req at 32631510
info: Activate at tick 32631511
info: Precharging bank 5, rank 7 at tick 32666511, now got 0 active
info: nextReqEvent scheduled@32656510
info: Epoch start = 32681510, turn = 0, subTurn = 2
info: Processing req at 32681510
info: nextReqEvent scheduled@32706510
info: Epoch start = 32731510, turn = 0, subTurn = 0
info: Processing req at 32731510
info: nextReqEvent scheduled@32756510
info: Epoch start = 32781510, turn = 0, subTurn = 1
info: Processing req at 32781510
info: Activate at tick 32781511
info: Precharging bank 5, rank 7 at tick 32816511, now got 0 active
info: nextReqEvent scheduled@32806510
info: Epoch start = 32831510, turn = 0, subTurn = 2
info: Processing req at 32831510
info: nextReqEvent scheduled@32856510
info: Epoch start = 32881510, turn = 0, subTurn = 0
info: Processing req at 32881510
info: nextReqEvent scheduled@32906510
info: Epoch start = 32931510, turn = 0, subTurn = 1
info: Processing req at 32931510
info: Activate at tick 32931511
info: Precharging bank 5, rank 7 at tick 32966511, now got 0 active
info: nextReqEvent scheduled@32956510
info: Epoch start = 32981510, turn = 0, subTurn = 2
info: Processing req at 32981510
info: nextReqEvent scheduled@33006510
info: Epoch start = 33031510, turn = 0, subTurn = 0
info: Processing req at 33031510
info: Epoch start = 33081510, turn = 0, subTurn = 1
info: nextReqEvent scheduled@33106510
info: Epoch start = 33131510, turn = 0, subTurn = 2
info: Processing req at 33131510
info: nextReqEvent scheduled@33156510
info: Epoch start = 33181510, turn = 0, subTurn = 0
info: Processing req at 33181510
info: Epoch start = 33231510, turn = 0, subTurn = 1
info: nextReqEvent scheduled@33256510
info: Epoch start = 33281510, turn = 0, subTurn = 2
info: Processing req at 33281510
info: nextReqEvent scheduled@33306510
info: Epoch start = 33331510, turn = 0, subTurn = 0
info: Processing req at 33331510
info: Epoch start = 33381510, turn = 0, subTurn = 1
info: nextReqEvent scheduled@33406510
info: Epoch start = 33431510, turn = 0, subTurn = 2
info: Processing req at 33431510
info: nextReqEvent scheduled@33456510
info: Timing access to addr 1759557440, rank/bank/row 0 5 3356
info: Epoch start = 33481510, turn = 0, subTurn = 0
info: Processing req at 33481510
info: Timing access to addr 2016640, rank/bank/row 6 6 3
info: Activate at tick 33481511
info: Precharging bank 6, rank 6 at tick 33516511, now got 0 active
info: nextReqEvent scheduled@33506510
info: no packet
info: Epoch start = 33531510, turn = 0, subTurn = 1
info: Processing req at 33531510
info: Timing access to addr 4630848, rank/bank/row 6 5 8
info: Activate at tick 33531510
info: Precharging bank 5, rank 6 at tick 33566510, now got 0 active
info: nextReqEvent scheduled@33556510
info: no packet
info: Epoch start = 33581510, turn = 0, subTurn = 2
info: Processing req at 33581510
info: no packet
info: nextReqEvent scheduled@33606510
info: Timing access to addr 1759557504, rank/bank/row 0 5 3356
WARNING: Command issued while in power-down mode.
Command: 0, Timestamp: 3873, Bank: 5
WARNING: Command issued while in power-down mode.
Command: 0, Timestamp: 2293, Bank: 4
WARNING: Command issued while in power-down mode.
Command: 0, Timestamp: 4233, Bank: 5
WARNING: Command issued while in power-down mode.
Command: 0, Timestamp: 5433, Bank: 5
info: Epoch start = 33631510, turn = 0, subTurn = 0
info: Processing req at 33631510
info: nextReqEvent scheduled@33656510
WARNING: Command issued while in power-down mode.
Command: 0, Timestamp: 933, Bank: 5
WARNING: Command issued while in power-down mode.
Command: 0, Timestamp: 2493, Bank: 5
WARNING: Command issued while in power-down mode.
Command: 0, Timestamp: 3213, Bank: 5
WARNING: Command issued while in power-down mode.
Command: 0, Timestamp: 3333, Bank: 5
WARNING: Command issued while in power-down mode.
Command: 0, Timestamp: 4773, Bank: 5
info: Epoch start = 33681510, turn = 0, subTurn = 1
info: Processing req at 33681510
info: nextReqEvent scheduled@33706510
info: Epoch start = 33731510, turn = 0, subTurn = 2
info: Processing req at 33731510
info: nextReqEvent scheduled@33756510
info: Epoch start = 33781510, turn = 0, subTurn = 0
info: Processing req at 33781510
info: nextReqEvent scheduled@33806510
info: Epoch start = 33831510, turn = 0, subTurn = 1
info: Processing req at 33831510
info: nextReqEvent scheduled@33856510
info: Epoch start = 33881510, turn = 0, subTurn = 2
info: Processing req at 33881510
info: nextReqEvent scheduled@33906510
info: no packet
info: Epoch start = 33931510, turn = 0, subTurn = 0
info: Processing req at 33931510
info: no packet
info: nextReqEvent scheduled@33956510
info: no packet
info: Epoch start = 33981510, turn = 0, subTurn = 1
info: Processing req at 33981510
info: Timing access to addr 4630912, rank/bank/row 6 5 8
info: Activate at tick 33981510
info: Precharging bank 5, rank 6 at tick 34016510, now got 0 active
info: nextReqEvent scheduled@34006510
info: Epoch start = 34031510, turn = 0, subTurn = 2
info: Processing req at 34031510
info: nextReqEvent scheduled@34056510
info: Epoch start = 34081510, turn = 0, subTurn = 0
info: Processing req at 34081510
info: nextReqEvent scheduled@34106510
info: Epoch start = 34131510, turn = 0, subTurn = 1
info: Processing req at 34131510
info: nextReqEvent scheduled@34156510
info: no packet
info: Epoch start = 34181510, turn = 0, subTurn = 2
info: Processing req at 34181510
info: no packet
info: nextReqEvent scheduled@34206510
info: Timing access to addr 1759557632, rank/bank/row 0 5 3356
info: Epoch start = 34231510, turn = 0, subTurn = 0
info: Processing req at 34231510
info: nextReqEvent scheduled@34256510
info: Epoch start = 34281510, turn = 0, subTurn = 1
info: Processing req at 34281510
info: nextReqEvent scheduled@34306510
info: no packet
info: Epoch start = 34331510, turn = 0, subTurn = 2
info: Processing req at 34331510
info: no packet
info: nextReqEvent scheduled@34356510
info: Timing access to addr 1759557696, rank/bank/row 0 5 3356
info: Epoch start = 34381510, turn = 0, subTurn = 0
info: Processing req at 34381510
info: nextReqEvent scheduled@34406510
info: Epoch start = 34431510, turn = 0, subTurn = 1
info: Processing req at 34431510
info: Activate at tick 34431510
info: Precharging bank 5, rank 7 at tick 34466510, now got 0 active
info: nextReqEvent scheduled@34456510
info: Epoch start = 34481510, turn = 0, subTurn = 2
info: Processing req at 34481510
info: nextReqEvent scheduled@34506510
info: Epoch start = 34531510, turn = 0, subTurn = 0
info: Processing req at 34531510
info: nextReqEvent scheduled@34556510
info: Epoch start = 34581510, turn = 0, subTurn = 1
info: Processing req at 34581510
info: Activate at tick 34581511
info: Precharging bank 5, rank 7 at tick 34616511, now got 0 active
info: nextReqEvent scheduled@34606510
info: Epoch start = 34631510, turn = 0, subTurn = 2
info: Processing req at 34631510
info: nextReqEvent scheduled@34656510
info: Epoch start = 34681510, turn = 0, subTurn = 0
info: Processing req at 34681510
info: nextReqEvent scheduled@34706510
info: Epoch start = 34731510, turn = 0, subTurn = 1
info: Processing req at 34731510
info: Activate at tick 34731511
info: Precharging bank 5, rank 7 at tick 34766511, now got 0 active
info: nextReqEvent scheduled@34756510
info: Epoch start = 34781510, turn = 0, subTurn = 2
info: Processing req at 34781510
info: nextReqEvent scheduled@34806510
info: Epoch start = 34831510, turn = 0, subTurn = 0
info: Processing req at 34831510
info: Epoch start = 34881510, turn = 0, subTurn = 1
info: nextReqEvent scheduled@34906510
info: Epoch start = 34931510, turn = 0, subTurn = 2
info: Processing req at 34931510
info: nextReqEvent scheduled@34956510
info: Epoch start = 34981510, turn = 0, subTurn = 0
info: Processing req at 34981510
info: Epoch start = 35031510, turn = 0, subTurn = 1
info: nextReqEvent scheduled@35056510
info: Epoch start = 35081510, turn = 0, subTurn = 2
info: Processing req at 35081510
info: nextReqEvent scheduled@35106510
info: Epoch start = 35131510, turn = 0, subTurn = 0
info: Processing req at 35131510
info: Epoch start = 35181510, turn = 0, subTurn = 1
info: nextReqEvent scheduled@35206510
info: Epoch start = 35231510, turn = 0, subTurn = 2
info: Processing req at 35231510
info: nextReqEvent scheduled@35256510
info: Timing access to addr 1759558080, rank/bank/row 0 5 3356
info: Epoch start = 35281510, turn = 0, subTurn = 0
info: Processing req at 35281510
info: Timing access to addr 2016768, rank/bank/row 6 6 3
info: Activate at tick 35281511
info: Precharging bank 6, rank 6 at tick 35316511, now got 0 active
info: nextReqEvent scheduled@35306510
info: no packet
info: Epoch start = 35331510, turn = 0, subTurn = 1
info: Processing req at 35331510
info: Timing access to addr 4630976, rank/bank/row 6 5 8
info: Activate at tick 35331510
info: Precharging bank 5, rank 6 at tick 35366510, now got 0 active
info: nextReqEvent scheduled@35356510
info: no packet
info: Epoch start = 35381510, turn = 0, subTurn = 2
info: Processing req at 35381510
info: no packet
info: nextReqEvent scheduled@35406510
info: Timing access to addr 1759558144, rank/bank/row 0 5 3356
info: Epoch start = 35431510, turn = 0, subTurn = 0
info: Processing req at 35431510
info: Timing access to addr 2016704, rank/bank/row 6 6 3
info: Activate at tick 35431510
info: Precharging bank 6, rank 6 at tick 35466510, now got 0 active
info: nextReqEvent scheduled@35456510
info: Epoch start = 35481510, turn = 0, subTurn = 1
info: Processing req at 35481510
info: Activate at tick 35481510
info: Precharging bank 5, rank 6 at tick 35516510, now got 0 active
info: nextReqEvent scheduled@35506510
info: Epoch start = 35531510, turn = 0, subTurn = 2
info: Processing req at 35531510
info: nextReqEvent scheduled@35556510
info: Epoch start = 35581510, turn = 0, subTurn = 0
info: Processing req at 35581510
info: nextReqEvent scheduled@35606510
info: Epoch start = 35631510, turn = 0, subTurn = 1
info: Processing req at 35631510
info: Activate at tick 35631511
info: Precharging bank 5, rank 7 at tick 35666511, now got 0 active
info: nextReqEvent scheduled@35656510
info: Epoch start = 35681510, turn = 0, subTurn = 2
info: Processing req at 35681510
info: nextReqEvent scheduled@35706510
info: Epoch start = 35731510, turn = 0, subTurn = 0
info: Processing req at 35731510
info: nextReqEvent scheduled@35756510
info: Epoch start = 35781510, turn = 0, subTurn = 1
info: Processing req at 35781510
info: Activate at tick 35781511
info: Precharging bank 5, rank 7 at tick 35816511, now got 0 active
info: nextReqEvent scheduled@35806510
info: Epoch start = 35831510, turn = 0, subTurn = 2
info: Processing req at 35831510
info: nextReqEvent scheduled@35856510
info: Epoch start = 35881510, turn = 0, subTurn = 0
info: Processing req at 35881510
info: nextReqEvent scheduled@35906510
info: Epoch start = 35931510, turn = 0, subTurn = 1
info: Processing req at 35931510
info: Activate at tick 35931511
info: Precharging bank 5, rank 7 at tick 35966511, now got 0 active
info: nextReqEvent scheduled@35956510
info: Epoch start = 35981510, turn = 0, subTurn = 2
info: Processing req at 35981510
info: nextReqEvent scheduled@36006510
info: Epoch start = 36031510, turn = 0, subTurn = 0
info: Processing req at 36031510
info: Epoch start = 36081510, turn = 0, subTurn = 1
info: nextReqEvent scheduled@36106510
info: Epoch start = 36131510, turn = 0, subTurn = 2
info: Processing req at 36131510
info: nextReqEvent scheduled@36156510
info: Epoch start = 36181510, turn = 0, subTurn = 0
info: Processing req at 36181510
info: Epoch start = 36231510, turn = 0, subTurn = 1
info: nextReqEvent scheduled@36256510
info: Epoch start = 36281510, turn = 0, subTurn = 2
info: Processing req at 36281510
info: no packet
info: nextReqEvent scheduled@36306510
info: Timing access to addr 1759558528, rank/bank/row 0 5 3356
info: Epoch start = 36331510, turn = 0, subTurn = 0
info: Processing req at 36331510
info: nextReqEvent scheduled@36356510
info: Epoch start = 36381510, turn = 0, subTurn = 1
info: Processing req at 36381510
info: nextReqEvent scheduled@36406510
info: no packet
info: Epoch start = 36431510, turn = 0, subTurn = 2
info: Processing req at 36431510
info: no packet
info: nextReqEvent scheduled@36456510
info: Timing access to addr 1759558592, rank/bank/row 0 5 3356
info: Epoch start = 36481510, turn = 0, subTurn = 0
info: Processing req at 36481510
info: nextReqEvent scheduled@36506510
info: no packet
info: Epoch start = 36531510, turn = 0, subTurn = 1
info: Processing req at 36531510
info: Timing access to addr 4631104, rank/bank/row 6 5 8
info: Activate at tick 36531511
info: Precharging bank 5, rank 6 at tick 36566511, now got 0 active
info: nextReqEvent scheduled@36556510
info: no packet
info: Epoch start = 36581510, turn = 0, subTurn = 2
info: Processing req at 36581510
info: Timing access to addr 845376, rank/bank/row 4 7 1
info: Activate at tick 36581510
info: Precharging bank 7, rank 4 at tick 36616510, now got 0 active
info: nextReqEvent scheduled@36606510
info: Timing access to addr 1759558656, rank/bank/row 0 5 3356
info: Epoch start = 36631510, turn = 0, subTurn = 0
info: Processing req at 36631510
info: Activate at tick 36631510
info: Precharging bank 6, rank 6 at tick 36666510, now got 0 active
info: nextReqEvent scheduled@36656510
info: Epoch start = 36681510, turn = 0, subTurn = 1
info: nextReqEvent scheduled@36706510
info: Epoch start = 36731510, turn = 0, subTurn = 2
info: Processing req at 36731510
info: no packet
info: nextReqEvent scheduled@36756510
info: Timing access to addr 1759558720, rank/bank/row 0 5 3356
info: Epoch start = 36781510, turn = 0, subTurn = 0
info: Processing req at 36781510
info: Activate at tick 36781511
info: Precharging bank 6, rank 6 at tick 36816511, now got 0 active
info: nextReqEvent scheduled@36806510
info: Epoch start = 36831510, turn = 0, subTurn = 1
info: nextReqEvent scheduled@36856510
info: Epoch start = 36881510, turn = 0, subTurn = 2
info: Processing req at 36881510
info: no packet
info: nextReqEvent scheduled@36906510
info: Timing access to addr 1759558784, rank/bank/row 0 5 3356
info: Epoch start = 36931510, turn = 0, subTurn = 0
info: Processing req at 36931510
info: nextReqEvent scheduled@36956510
info: Epoch start = 36981510, turn = 0, subTurn = 1
info: Processing req at 36981510
info: Activate at tick 36981511
info: Precharging bank 5, rank 7 at tick 37016511, now got 0 active
info: nextReqEvent scheduled@37006510
info: Epoch start = 37031510, turn = 0, subTurn = 2
info: Processing req at 37031510
info: nextReqEvent scheduled@37056510
info: Epoch start = 37081510, turn = 0, subTurn = 0
info: Processing req at 37081510
info: nextReqEvent scheduled@37106510
info: Epoch start = 37131510, turn = 0, subTurn = 1
info: Processing req at 37131510
info: Activate at tick 37131511
info: Precharging bank 5, rank 7 at tick 37166511, now got 0 active
info: nextReqEvent scheduled@37156510
info: Epoch start = 37181510, turn = 0, subTurn = 2
info: Processing req at 37181510
info: nextReqEvent scheduled@37206510
info: Epoch start = 37231510, turn = 0, subTurn = 0
info: Processing req at 37231510
info: nextReqEvent scheduled@37256510
info: Epoch start = 37281510, turn = 0, subTurn = 1
info: Processing req at 37281510
info: Activate at tick 37281511
info: Precharging bank 5, rank 7 at tick 37316511, now got 0 active
info: nextReqEvent scheduled@37306510
info: Epoch start = 37331510, turn = 0, subTurn = 2
info: Processing req at 37331510
info: nextReqEvent scheduled@37356510
info: Epoch start = 37381510, turn = 0, subTurn = 0
info: Processing req at 37381510
info: Epoch start = 37431510, turn = 0, subTurn = 1
info: nextReqEvent scheduled@37456510
info: Epoch start = 37481510, turn = 0, subTurn = 2
info: Processing req at 37481510
info: nextReqEvent scheduled@37506510
info: Epoch start = 37531510, turn = 0, subTurn = 0
info: Processing req at 37531510
info: Epoch start = 37581510, turn = 0, subTurn = 1
info: nextReqEvent scheduled@37606510
info: Epoch start = 37631510, turn = 0, subTurn = 2
info: Processing req at 37631510
info: nextReqEvent scheduled@37656510
info: Epoch start = 37681510, turn = 0, subTurn = 0
info: Processing req at 37681510
info: Epoch start = 37731510, turn = 0, subTurn = 1
info: nextReqEvent scheduled@37756510
info: Epoch start = 37781510, turn = 0, subTurn = 2
info: Processing req at 37781510
info: nextReqEvent scheduled@37806510
info: Epoch start = 37831510, turn = 0, subTurn = 0
info: Processing req at 37831510
info: Timing access to addr 2016960, rank/bank/row 6 6 3
info: Activate at tick 37831511
info: Precharging bank 6, rank 6 at tick 37866511, now got 0 active
info: nextReqEvent scheduled@37856510
info: Epoch start = 37881510, turn = 0, subTurn = 1
info: Processing req at 37881510
info: Activate at tick 37881510
info: Precharging bank 5, rank 6 at tick 37916510, now got 0 active
info: nextReqEvent scheduled@37906510
info: Epoch start = 37931510, turn = 0, subTurn = 2
info: Processing req at 37931510
info: no packet
info: nextReqEvent scheduled@37956510
info: Timing access to addr 1759559232, rank/bank/row 0 5 3356
info: Epoch start = 37981510, turn = 0, subTurn = 0
info: Processing req at 37981510
info: nextReqEvent scheduled@38006510
info: Epoch start = 38031510, turn = 0, subTurn = 1
info: Processing req at 38031510
info: Activate at tick 38031510
info: Precharging bank 5, rank 6 at tick 38066510, now got 0 active
info: nextReqEvent scheduled@38056510
info: Epoch start = 38081510, turn = 0, subTurn = 2
info: Processing req at 38081510
info: nextReqEvent scheduled@38106510
info: Epoch start = 38131510, turn = 0, subTurn = 0
info: Processing req at 38131510
info: nextReqEvent scheduled@38156510
info: Epoch start = 38181510, turn = 0, subTurn = 1
info: Processing req at 38181510
info: Activate at tick 38181511
info: Precharging bank 5, rank 7 at tick 38216511, now got 0 active
info: nextReqEvent scheduled@38206510
info: Epoch start = 38231510, turn = 0, subTurn = 2
info: Processing req at 38231510
info: nextReqEvent scheduled@38256510
info: Epoch start = 38281510, turn = 0, subTurn = 0
info: Processing req at 38281510
info: nextReqEvent scheduled@38306510
info: Epoch start = 38331510, turn = 0, subTurn = 1
info: Processing req at 38331510
info: Activate at tick 38331511
info: Precharging bank 5, rank 7 at tick 38366511, now got 0 active
info: nextReqEvent scheduled@38356510
info: Epoch start = 38381510, turn = 0, subTurn = 2
info: Processing req at 38381510
info: nextReqEvent scheduled@38406510
info: Epoch start = 38431510, turn = 0, subTurn = 0
info: Processing req at 38431510
info: nextReqEvent scheduled@38456510
info: Epoch start = 38481510, turn = 0, subTurn = 1
info: Processing req at 38481510
info: Activate at tick 38481511
info: Precharging bank 5, rank 7 at tick 38516511, now got 0 active
info: nextReqEvent scheduled@38506510
info: Epoch start = 38531510, turn = 0, subTurn = 2
info: Processing req at 38531510
info: nextReqEvent scheduled@38556510
info: Epoch start = 38581510, turn = 0, subTurn = 0
info: Processing req at 38581510
info: Epoch start = 38631510, turn = 0, subTurn = 1
info: nextReqEvent scheduled@38656510
info: Epoch start = 38681510, turn = 0, subTurn = 2
info: Processing req at 38681510
info: nextReqEvent scheduled@38706510
info: Epoch start = 38731510, turn = 0, subTurn = 0
info: Processing req at 38731510
info: Epoch start = 38781510, turn = 0, subTurn = 1
info: nextReqEvent scheduled@38806510
info: Epoch start = 38831510, turn = 0, subTurn = 2
info: Processing req at 38831510
info: nextReqEvent scheduled@38856510
info: Epoch start = 38881510, turn = 0, subTurn = 0
info: Processing req at 38881510
info: Epoch start = 38931510, turn = 0, subTurn = 1
info: nextReqEvent scheduled@38956510
info: Epoch start = 38981510, turn = 0, subTurn = 2
info: Processing req at 38981510
info: Epoch start = 39031510, turn = 0, subTurn = 0
info: nextReqEvent scheduled@39056510
info: no packet
info: Epoch start = 39081510, turn = 0, subTurn = 1
info: Processing req at 39081510
info: Timing access to addr 4631296, rank/bank/row 6 5 8
info: Activate at tick 39081511
info: Precharging bank 5, rank 6 at tick 39116511, now got 0 active
info: nextReqEvent scheduled@39106510
info: Timing access to addr 1759559744, rank/bank/row 0 6 3356
info: Epoch start = 39131510, turn = 0, subTurn = 2
info: Processing req at 39131510
info: no packet
info: nextReqEvent scheduled@39156510
info: no packet
info: Epoch start = 39181510, turn = 0, subTurn = 0
info: Processing req at 39181510
info: Timing access to addr 2017024, rank/bank/row 6 6 3
info: Activate at tick 39181510
info: Precharging bank 6, rank 6 at tick 39216510, now got 0 active
info: nextReqEvent scheduled@39206510
info: no packet
info: Epoch start = 39231510, turn = 0, subTurn = 1
info: Processing req at 39231510
info: no packet
info: nextReqEvent scheduled@39256510
info: Timing access to addr 1759559808, rank/bank/row 0 6 3356
info: Epoch start = 39281510, turn = 0, subTurn = 2
info: Processing req at 39281510
info: nextReqEvent scheduled@39306510
info: Epoch start = 39331510, turn = 0, subTurn = 0
info: Processing req at 39331510
info: Activate at tick 39331510
info: Precharging bank 6, rank 6 at tick 39366510, now got 0 active
info: nextReqEvent scheduled@39356510
info: Epoch start = 39381510, turn = 0, subTurn = 1
info: Processing req at 39381510
info: nextReqEvent scheduled@39406510
info: Epoch start = 39431510, turn = 0, subTurn = 2
info: Processing req at 39431510
info: nextReqEvent scheduled@39456510
info: Epoch start = 39481510, turn = 0, subTurn = 0
info: Processing req at 39481510
info: nextReqEvent scheduled@39506510
info: no packet
info: Epoch start = 39531510, turn = 0, subTurn = 1
info: Processing req at 39531510
info: Timing access to addr 4631360, rank/bank/row 6 5 8
info: Activate at tick 39531511
info: Precharging bank 5, rank 6 at tick 39566511, now got 0 active
info: nextReqEvent scheduled@39556510
info: Epoch start = 39581510, turn = 0, subTurn = 2
info: Processing req at 39581510
info: Epoch start = 39631510, turn = 0, subTurn = 0
info: Processing req at 39631510
info: nextReqEvent scheduled@39656510
info: no packet
info: Epoch start = 39681510, turn = 0, subTurn = 1
info: Processing req at 39681510
info: Timing access to addr 10468416, rank/bank/row 7 5 19
info: Activate at tick 39681511
info: Precharging bank 5, rank 7 at tick 39716511, now got 0 active
info: nextReqEvent scheduled@39706510
info: Epoch start = 39731510, turn = 0, subTurn = 2
info: Processing req at 39731510
info: Epoch start = 39781510, turn = 0, subTurn = 0
info: Processing req at 39781510
info: nextReqEvent scheduled@39806510
info: no packet
info: Epoch start = 39831510, turn = 0, subTurn = 1
info: Processing req at 39831510
info: Timing access to addr 10468480, rank/bank/row 7 5 19
info: Activate at tick 39831511
info: Precharging bank 5, rank 7 at tick 39866511, now got 0 active
info: nextReqEvent scheduled@39856510
info: Epoch start = 39881510, turn = 0, subTurn = 2
info: Processing req at 39881510
info: Epoch start = 39931510, turn = 0, subTurn = 0
info: Processing req at 39931510
info: nextReqEvent scheduled@39956510
info: no packet
info: Epoch start = 39981510, turn = 0, subTurn = 1
info: Processing req at 39981510
info: Timing access to addr 10468544, rank/bank/row 7 5 19
info: Activate at tick 39981511
info: Precharging bank 5, rank 7 at tick 40016511, now got 0 active
info: nextReqEvent scheduled@40006510
info: Epoch start = 40031510, turn = 0, subTurn = 2
info: Processing req at 40031510
info: Epoch start = 40081510, turn = 0, subTurn = 0
info: nextReqEvent scheduled@40106510
info: Epoch start = 40131510, turn = 0, subTurn = 1
info: Processing req at 40131510
info: nextReqEvent scheduled@40156510
info: Epoch start = 40181510, turn = 0, subTurn = 2
info: Processing req at 40181510
info: Epoch start = 40231510, turn = 0, subTurn = 0
info: nextReqEvent scheduled@40256510
info: Epoch start = 40281510, turn = 0, subTurn = 1
info: Processing req at 40281510
info: nextReqEvent scheduled@40306510
info: Epoch start = 40331510, turn = 0, subTurn = 2
info: Processing req at 40331510
info: Epoch start = 40381510, turn = 0, subTurn = 0
info: nextReqEvent scheduled@40406510
info: Epoch start = 40431510, turn = 0, subTurn = 1
info: Processing req at 40431510
info: nextReqEvent scheduled@40456510
info: Epoch start = 40481510, turn = 0, subTurn = 2
info: Processing req at 40481510
info: nextReqEvent scheduled@40506510
info: no packet
info: Epoch start = 40531510, turn = 0, subTurn = 0
info: Processing req at 40531510
info: Timing access to addr 2017152, rank/bank/row 6 6 3
info: Activate at tick 40531511
info: Precharging bank 6, rank 6 at tick 40566511, now got 0 active
info: nextReqEvent scheduled@40556510
info: no packet
info: Epoch start = 40581510, turn = 0, subTurn = 1
info: Processing req at 40581510
info: Timing access to addr 4631424, rank/bank/row 6 5 8
info: Activate at tick 40581510
info: Precharging bank 5, rank 6 at tick 40616510, now got 0 active
info: nextReqEvent scheduled@40606510
info: Epoch start = 40631510, turn = 0, subTurn = 2
info: Processing req at 40631510
info: nextReqEvent scheduled@40656510
info: Epoch start = 40681510, turn = 0, subTurn = 0
info: Processing req at 40681510
info: Activate at tick 40681510
info: Precharging bank 6, rank 6 at tick 40716510, now got 0 active
info: nextReqEvent scheduled@40706510
info: Epoch start = 40731510, turn = 0, subTurn = 1
info: Processing req at 40731510
info: nextReqEvent scheduled@40756510
info: Epoch start = 40781510, turn = 0, subTurn = 2
info: Processing req at 40781510
info: nextReqEvent scheduled@40806510
info: Epoch start = 40831510, turn = 0, subTurn = 0
info: Processing req at 40831510
info: nextReqEvent scheduled@40856510
info: no packet
info: Epoch start = 40881510, turn = 0, subTurn = 1
info: Processing req at 40881510
info: Timing access to addr 10468608, rank/bank/row 7 5 19
info: Activate at tick 40881511
info: Precharging bank 5, rank 7 at tick 40916511, now got 0 active
info: nextReqEvent scheduled@40906510
info: Epoch start = 40931510, turn = 0, subTurn = 2
info: Processing req at 40931510
info: Epoch start = 40981510, turn = 0, subTurn = 0
info: Processing req at 40981510
info: nextReqEvent scheduled@41006510
info: no packet
info: Epoch start = 41031510, turn = 0, subTurn = 1
info: Processing req at 41031510
info: Timing access to addr 10468672, rank/bank/row 7 5 19
info: Activate at tick 41031511
info: Precharging bank 5, rank 7 at tick 41066511, now got 0 active
info: nextReqEvent scheduled@41056510
info: Epoch start = 41081510, turn = 0, subTurn = 2
info: Processing req at 41081510
info: Epoch start = 41131510, turn = 0, subTurn = 0
info: Processing req at 41131510
info: nextReqEvent scheduled@41156510
info: no packet
info: Epoch start = 41181510, turn = 0, subTurn = 1
info: Processing req at 41181510
info: Timing access to addr 10468736, rank/bank/row 7 5 19
info: Activate at tick 41181511
info: Precharging bank 5, rank 7 at tick 41216511, now got 0 active
info: nextReqEvent scheduled@41206510
info: Epoch start = 41231510, turn = 0, subTurn = 2
info: Processing req at 41231510
info: Epoch start = 41281510, turn = 0, subTurn = 0
info: nextReqEvent scheduled@41306510
info: Epoch start = 41331510, turn = 0, subTurn = 1
info: Processing req at 41331510
info: nextReqEvent scheduled@41356510
info: Epoch start = 41381510, turn = 0, subTurn = 2
info: Processing req at 41381510
WARNING: Command issued while in power-down mode.
Command: 0, Timestamp: 8553, Bank: 5
WARNING: Command issued while in power-down mode.
Command: 0, Timestamp: 8753, Bank: 6
WARNING: Command issued while in power-down mode.
Command: 0, Timestamp: 6693, Bank: 5
WARNING: Command issued while in power-down mode.
Command: 0, Timestamp: 7053, Bank: 5
WARNING: Command issued while in power-down mode.
Command: 0, Timestamp: 8133, Bank: 5
WARNING: Command issued while in power-down mode.
Command: 0, Timestamp: 8493, Bank: 5
WARNING: Command issued while in power-down mode.
Command: 0, Timestamp: 9213, Bank: 5
WARNING: Command issued while in power-down mode.
Command: 0, Timestamp: 9573, Bank: 5
WARNING: Command issued while in power-down mode.
Command: 0, Timestamp: 9693, Bank: 5
WARNING: Command issued while in power-down mode.
Command: 0, Timestamp: 10413, Bank: 5
WARNING: Command issued while in power-down mode.
Command: 0, Timestamp: 11093, Bank: 6
WARNING: Command issued while in power-down mode.
Command: 0, Timestamp: 11453, Bank: 6
WARNING: Command issued while in power-down mode.
Command: 0, Timestamp: 11813, Bank: 6
WARNING: Command issued while in power-down mode.
Command: 0, Timestamp: 12173, Bank: 6
info: Epoch start = 41431510, turn = 0, subTurn = 0
info: nextReqEvent scheduled@41456510
info: Epoch start = 41481510, turn = 0, subTurn = 1
info: Processing req at 41481510
info: nextReqEvent scheduled@41506510
info: Epoch start = 41531510, turn = 0, subTurn = 2
info: Processing req at 41531510
info: nextReqEvent scheduled@41556510
info: Epoch start = 41581510, turn = 0, subTurn = 0
info: Processing req at 41581510
info: nextReqEvent scheduled@41606510
info: Epoch start = 41631510, turn = 0, subTurn = 1
info: Processing req at 41631510
info: nextReqEvent scheduled@41656510
info: Epoch start = 41681510, turn = 0, subTurn = 2
info: Processing req at 41681510
info: no packet
info: nextReqEvent scheduled@41706510
info: no packet
info: Epoch start = 41731510, turn = 0, subTurn = 0
info: Processing req at 41731510
info: Timing access to addr 2017280, rank/bank/row 6 6 3
info: Activate at tick 41731511
info: Precharging bank 6, rank 6 at tick 41766511, now got 0 active
info: nextReqEvent scheduled@41756510
info: no packet
info: Epoch start = 41781510, turn = 0, subTurn = 1
info: Processing req at 41781510
info: Timing access to addr 4631488, rank/bank/row 6 5 8
info: Activate at tick 41781510
info: Precharging bank 5, rank 6 at tick 41816510, now got 0 active
info: nextReqEvent scheduled@41806510
info: Epoch start = 41831510, turn = 0, subTurn = 2
info: Processing req at 41831510
info: nextReqEvent scheduled@41856510
WARNING: Command issued while in power-down mode.
Command: 0, Timestamp: 6993, Bank: 5
WARNING: Command issued while in power-down mode.
Command: 0, Timestamp: 8073, Bank: 5
WARNING: Command issued while in power-down mode.
Command: 0, Timestamp: 9873, Bank: 5
WARNING: Command issued while in power-down mode.
Command: 0, Timestamp: 11313, Bank: 5
WARNING: Command issued while in power-down mode.
Command: 0, Timestamp: 12153, Bank: 5
info: Epoch start = 41881510, turn = 0, subTurn = 0
info: Processing req at 41881510
info: nextReqEvent scheduled@41906510
info: no packet
info: Epoch start = 41931510, turn = 0, subTurn = 1
info: Processing req at 41931510
info: Timing access to addr 4631552, rank/bank/row 6 5 8
info: Activate at tick 41931510
info: Precharging bank 5, rank 6 at tick 41966510, now got 0 active
info: nextReqEvent scheduled@41956510
info: Epoch start = 41981510, turn = 0, subTurn = 2
info: Processing req at 41981510
info: Epoch start = 42031510, turn = 0, subTurn = 0
info: Processing req at 42031510
info: nextReqEvent scheduled@42056510
info: no packet
info: Epoch start = 42081510, turn = 0, subTurn = 1
info: Processing req at 42081510
info: no packet
info: nextReqEvent scheduled@42106510
info: Timing access to addr 1759560896, rank/bank/row 0 6 3356
info: Epoch start = 42131510, turn = 0, subTurn = 2
info: Processing req at 42131510
info: nextReqEvent scheduled@42156510
info: Epoch start = 42181510, turn = 0, subTurn = 0
info: Processing req at 42181510
info: nextReqEvent scheduled@42206510
info: no packet
info: Epoch start = 42231510, turn = 0, subTurn = 1
info: Processing req at 42231510
info: Timing access to addr 10468800, rank/bank/row 7 5 19
info: Activate at tick 42231511
info: Precharging bank 5, rank 7 at tick 42266511, now got 0 active
info: nextReqEvent scheduled@42256510
info: Epoch start = 42281510, turn = 0, subTurn = 2
info: Processing req at 42281510
info: Epoch start = 42331510, turn = 0, subTurn = 0
info: Processing req at 42331510
info: no packet
info: nextReqEvent scheduled@42356510
info: no packet
info: Epoch start = 42381510, turn = 0, subTurn = 1
info: Processing req at 42381510
info: Timing access to addr 10468864, rank/bank/row 7 5 19
info: Activate at tick 42381511
info: Precharging bank 5, rank 7 at tick 42416511, now got 0 active
info: nextReqEvent scheduled@42406510
info: Timing access to addr 1759561024, rank/bank/row 0 6 3356
info: Epoch start = 42431510, turn = 0, subTurn = 2
info: Processing req at 42431510
info: nextReqEvent scheduled@42456510
info: Epoch start = 42481510, turn = 0, subTurn = 0
info: Processing req at 42481510
info: no packet
info: nextReqEvent scheduled@42506510
info: no packet
info: Epoch start = 42531510, turn = 0, subTurn = 1
info: Processing req at 42531510
info: Timing access to addr 2007296, rank/bank/row 6 5 3
info: Activate at tick 42531511
info: Precharging bank 5, rank 6 at tick 42566511, now got 0 active
info: nextReqEvent scheduled@42556510
info: Timing access to addr 1759561088, rank/bank/row 0 6 3356
info: Epoch start = 42581510, turn = 0, subTurn = 2
info: Processing req at 42581510
info: nextReqEvent scheduled@42606510
info: Epoch start = 42631510, turn = 0, subTurn = 0
info: Processing req at 42631510
info: nextReqEvent scheduled@42656510
info: no packet
info: Epoch start = 42681510, turn = 0, subTurn = 1
info: Processing req at 42681510
info: Timing access to addr 10468928, rank/bank/row 7 5 19
info: Activate at tick 42681511
info: Precharging bank 5, rank 7 at tick 42716511, now got 0 active
info: nextReqEvent scheduled@42706510
info: Epoch start = 42731510, turn = 0, subTurn = 2
info: Processing req at 42731510
info: Epoch start = 42781510, turn = 0, subTurn = 0
info: nextReqEvent scheduled@42806510
info: Epoch start = 42831510, turn = 0, subTurn = 1
info: Processing req at 42831510
info: nextReqEvent scheduled@42856510
info: Epoch start = 42881510, turn = 0, subTurn = 2
info: Processing req at 42881510
info: Epoch start = 42931510, turn = 0, subTurn = 0
info: nextReqEvent scheduled@42956510
info: Epoch start = 42981510, turn = 0, subTurn = 1
info: Processing req at 42981510
info: nextReqEvent scheduled@43006510
info: Epoch start = 43031510, turn = 0, subTurn = 2
info: Processing req at 43031510
info: Epoch start = 43081510, turn = 0, subTurn = 0
info: nextReqEvent scheduled@43106510
info: Epoch start = 43131510, turn = 0, subTurn = 1
info: Processing req at 43131510
info: nextReqEvent scheduled@43156510
info: Epoch start = 43181510, turn = 0, subTurn = 2
info: Processing req at 43181510
info: nextReqEvent scheduled@43206510
info: no packet
info: Epoch start = 43231510, turn = 0, subTurn = 0
info: Processing req at 43231510
info: Timing access to addr 2017344, rank/bank/row 6 6 3
info: Activate at tick 43231511
info: Precharging bank 6, rank 6 at tick 43266511, now got 0 active
info: nextReqEvent scheduled@43256510
info: no packet
info: Epoch start = 43281510, turn = 0, subTurn = 1
info: Processing req at 43281510
info: Timing access to addr 4631616, rank/bank/row 6 5 8
info: Activate at tick 43281510
info: Precharging bank 5, rank 6 at tick 43316510, now got 0 active
info: nextReqEvent scheduled@43306510
info: Timing access to addr 1759561408, rank/bank/row 0 6 3356
info: Epoch start = 43331510, turn = 0, subTurn = 2
info: Processing req at 43331510
info: nextReqEvent scheduled@43356510
info: Epoch start = 43381510, turn = 0, subTurn = 0
info: Processing req at 43381510
info: Activate at tick 43381510
info: Precharging bank 6, rank 6 at tick 43416510, now got 0 active
info: nextReqEvent scheduled@43406510
info: Epoch start = 43431510, turn = 0, subTurn = 1
info: Processing req at 43431510
info: nextReqEvent scheduled@43456510
info: Epoch start = 43481510, turn = 0, subTurn = 2
info: Processing req at 43481510
info: nextReqEvent scheduled@43506510
info: Epoch start = 43531510, turn = 0, subTurn = 0
info: Processing req at 43531510
info: nextReqEvent scheduled@43556510
info: no packet
info: Epoch start = 43581510, turn = 0, subTurn = 1
info: Processing req at 43581510
info: Timing access to addr 10468992, rank/bank/row 7 5 19
info: Activate at tick 43581511
info: Precharging bank 5, rank 7 at tick 43616511, now got 0 active
info: nextReqEvent scheduled@43606510
info: Epoch start = 43631510, turn = 0, subTurn = 2
info: Processing req at 43631510
info: Epoch start = 43681510, turn = 0, subTurn = 0
info: Processing req at 43681510
info: nextReqEvent scheduled@43706510
info: no packet
info: Epoch start = 43731510, turn = 0, subTurn = 1
info: Processing req at 43731510
info: Timing access to addr 10469056, rank/bank/row 7 5 19
info: Activate at tick 43731511
info: Precharging bank 5, rank 7 at tick 43766511, now got 0 active
info: nextReqEvent scheduled@43756510
info: Timing access to addr 1759561600, rank/bank/row 0 6 3356
info: Epoch start = 43781510, turn = 0, subTurn = 2
info: Processing req at 43781510
info: no packet
info: nextReqEvent scheduled@43806510
info: no packet
info: Epoch start = 43831510, turn = 0, subTurn = 0
info: Processing req at 43831510
info: no packet
info: nextReqEvent scheduled@43856510
info: no packet
info: Epoch start = 43881510, turn = 0, subTurn = 1
info: Processing req at 43881510
info: Timing access to addr 2007360, rank/bank/row 6 5 3
info: Activate at tick 43881511
info: Precharging bank 5, rank 6 at tick 43916511, now got 0 active
info: nextReqEvent scheduled@43906510
info: Timing access to addr 1759561664, rank/bank/row 0 6 3356
info: Epoch start = 43931510, turn = 0, subTurn = 2
info: Processing req at 43931510
info: no packet
info: nextReqEvent scheduled@43956510
info: no packet
info: Epoch start = 43981510, turn = 0, subTurn = 0
info: Processing req at 43981510
info: no packet
info: nextReqEvent scheduled@44006510
info: no packet
info: Epoch start = 44031510, turn = 0, subTurn = 1
info: Processing req at 44031510
info: Timing access to addr 10469120, rank/bank/row 7 5 19
info: Activate at tick 44031511
info: Precharging bank 5, rank 7 at tick 44066511, now got 0 active
info: nextReqEvent scheduled@44056510
info: Timing access to addr 1759561728, rank/bank/row 0 6 3356
info: Epoch start = 44081510, turn = 0, subTurn = 2
info: Processing req at 44081510
info: Activate at tick 44081510
info: Precharging bank 1, rank 1 at tick 44116510, now got 0 active
info: nextReqEvent scheduled@44106510
info: Epoch start = 44131510, turn = 0, subTurn = 0
info: nextReqEvent scheduled@44156510
info: Epoch start = 44181510, turn = 0, subTurn = 1
info: Processing req at 44181510
info: nextReqEvent scheduled@44206510
info: Epoch start = 44231510, turn = 0, subTurn = 2
info: Processing req at 44231510
info: Epoch start = 44281510, turn = 0, subTurn = 0
info: nextReqEvent scheduled@44306510
info: Epoch start = 44331510, turn = 0, subTurn = 1
info: Processing req at 44331510
info: nextReqEvent scheduled@44356510
info: Epoch start = 44381510, turn = 0, subTurn = 2
info: Processing req at 44381510
info: Epoch start = 44431510, turn = 0, subTurn = 0
info: nextReqEvent scheduled@44456510
info: Epoch start = 44481510, turn = 0, subTurn = 1
info: Processing req at 44481510
info: nextReqEvent scheduled@44506510
info: Epoch start = 44531510, turn = 0, subTurn = 2
info: Processing req at 44531510
info: nextReqEvent scheduled@44556510
info: no packet
info: Epoch start = 44581510, turn = 0, subTurn = 0
info: Processing req at 44581510
info: Timing access to addr 2017472, rank/bank/row 6 6 3
info: Activate at tick 44581511
info: Precharging bank 6, rank 6 at tick 44616511, now got 0 active
info: nextReqEvent scheduled@44606510
info: no packet
info: Epoch start = 44631510, turn = 0, subTurn = 1
info: Processing req at 44631510
info: no packet
info: nextReqEvent scheduled@44656510
info: Timing access to addr 1759561984, rank/bank/row 0 6 3356
info: Epoch start = 44681510, turn = 0, subTurn = 2
info: Processing req at 44681510
info: no packet
info: nextReqEvent scheduled@44706510
info: no packet
info: Epoch start = 44731510, turn = 0, subTurn = 0
info: Processing req at 44731510
info: no packet
info: nextReqEvent scheduled@44756510
info: no packet
info: Epoch start = 44781510, turn = 0, subTurn = 1
info: Processing req at 44781510
info: Timing access to addr 4631680, rank/bank/row 6 5 8
info: Activate at tick 44781511
info: Precharging bank 5, rank 6 at tick 44816511, now got 0 active
info: nextReqEvent scheduled@44806510
info: Timing access to addr 1759562048, rank/bank/row 0 6 3356
info: Epoch start = 44831510, turn = 0, subTurn = 2
info: Processing req at 44831510
info: no packet
info: nextReqEvent scheduled@44856510
info: no packet
info: Epoch start = 44881510, turn = 0, subTurn = 0
info: Processing req at 44881510
info: Timing access to addr 837376, rank/bank/row 4 6 1
info: Activate at tick 44881510
info: Precharging bank 6, rank 4 at tick 44916510, now got 0 active
info: nextReqEvent scheduled@44906510
info: no packet
info: Epoch start = 44931510, turn = 0, subTurn = 1
info: Processing req at 44931510
info: Timing access to addr 4631744, rank/bank/row 6 5 8
info: Activate at tick 44931511
info: Precharging bank 5, rank 6 at tick 44966511, now got 0 active
info: nextReqEvent scheduled@44956510
info: Timing access to addr 1759562112, rank/bank/row 0 6 3356
info: Epoch start = 44981510, turn = 0, subTurn = 2
info: Processing req at 44981510
info: no packet
info: nextReqEvent scheduled@45006510
info: no packet
info: Epoch start = 45031510, turn = 0, subTurn = 0
info: Processing req at 45031510
info: Timing access to addr 837696, rank/bank/row 4 6 1
info: Activate at tick 45031510
info: Precharging bank 6, rank 4 at tick 45066510, now got 0 active
info: nextReqEvent scheduled@45056510
info: no packet
info: Epoch start = 45081510, turn = 0, subTurn = 1
info: Processing req at 45081510
info: Timing access to addr 10469184, rank/bank/row 7 5 19
info: Activate at tick 45081511
info: Precharging bank 5, rank 7 at tick 45116511, now got 0 active
info: nextReqEvent scheduled@45106510
info: Timing access to addr 1759562176, rank/bank/row 0 6 3356
info: Epoch start = 45131510, turn = 0, subTurn = 2
info: Processing req at 45131510
info: nextReqEvent scheduled@45156510
info: Epoch start = 45181510, turn = 0, subTurn = 0
info: Processing req at 45181510
info: Timing access to addr 838144, rank/bank/row 4 6 1
info: Activate at tick 45181510
info: Precharging bank 6, rank 4 at tick 45216510, now got 0 active
info: nextReqEvent scheduled@45206510
info: no packet
info: Epoch start = 45231510, turn = 0, subTurn = 1
info: Processing req at 45231510
info: Timing access to addr 10469248, rank/bank/row 7 5 19
info: Activate at tick 45231511
info: Precharging bank 5, rank 7 at tick 45266511, now got 0 active
info: nextReqEvent scheduled@45256510
info: Epoch start = 45281510, turn = 0, subTurn = 2
info: Processing req at 45281510
info: Epoch start = 45331510, turn = 0, subTurn = 0
info: Processing req at 45331510
info: nextReqEvent scheduled@45356510
info: no packet
info: Epoch start = 45381510, turn = 0, subTurn = 1
info: Processing req at 45381510
info: Timing access to addr 10469312, rank/bank/row 7 5 19
info: Activate at tick 45381511
info: Precharging bank 5, rank 7 at tick 45416511, now got 0 active
info: nextReqEvent scheduled@45406510
info: Epoch start = 45431510, turn = 0, subTurn = 2
info: Processing req at 45431510
info: Epoch start = 45481510, turn = 0, subTurn = 0
info: nextReqEvent scheduled@45506510
info: Epoch start = 45531510, turn = 0, subTurn = 1
info: Processing req at 45531510
info: nextReqEvent scheduled@45556510
info: Epoch start = 45581510, turn = 0, subTurn = 2
info: Processing req at 45581510
info: Epoch start = 45631510, turn = 0, subTurn = 0
info: nextReqEvent scheduled@45656510
info: Epoch start = 45681510, turn = 0, subTurn = 1
info: Processing req at 45681510
info: nextReqEvent scheduled@45706510
info: Epoch start = 45731510, turn = 0, subTurn = 2
info: Processing req at 45731510
info: Epoch start = 45781510, turn = 0, subTurn = 0
info: nextReqEvent scheduled@45806510
info: Epoch start = 45831510, turn = 0, subTurn = 1
info: Processing req at 45831510
info: nextReqEvent scheduled@45856510
info: Timing access to addr 1759562496, rank/bank/row 0 6 3356
info: Epoch start = 45881510, turn = 0, subTurn = 2
info: Processing req at 45881510
info: no packet
info: nextReqEvent scheduled@45906510
info: no packet
info: Epoch start = 45931510, turn = 0, subTurn = 0
info: Processing req at 45931510
info: Timing access to addr 2017600, rank/bank/row 6 6 3
info: Activate at tick 45931511
info: Precharging bank 6, rank 6 at tick 45966511, now got 0 active
info: nextReqEvent scheduled@45956510
info: no packet
info: Epoch start = 45981510, turn = 0, subTurn = 1
info: Processing req at 45981510
info: Timing access to addr 4631808, rank/bank/row 6 5 8
info: Activate at tick 45981510
info: Precharging bank 5, rank 6 at tick 46016510, now got 0 active
info: nextReqEvent scheduled@46006510
info: Timing access to addr 1759562560, rank/bank/row 0 6 3356
info: Epoch start = 46031510, turn = 0, subTurn = 2
info: Processing req at 46031510
info: no packet
info: nextReqEvent scheduled@46056510
info: no packet
info: Epoch start = 46081510, turn = 0, subTurn = 0
info: Processing req at 46081510
info: Timing access to addr 2017536, rank/bank/row 6 6 3
info: Activate at tick 46081510
info: Precharging bank 6, rank 6 at tick 46116510, now got 0 active
info: nextReqEvent scheduled@46106510
info: no packet
info: Epoch start = 46131510, turn = 0, subTurn = 1
info: Processing req at 46131510
info: Timing access to addr 4631872, rank/bank/row 6 5 8
info: Activate at tick 46131510
info: Precharging bank 5, rank 6 at tick 46166510, now got 0 active
info: nextReqEvent scheduled@46156510
info: Epoch start = 46181510, turn = 0, subTurn = 2
info: Processing req at 46181510
info: Epoch start = 46231510, turn = 0, subTurn = 0
info: Processing req at 46231510
info: Activate at tick 46231511
info: Precharging bank 6, rank 7 at tick 46266511, now got 0 active
info: nextReqEvent scheduled@46256510
info: Epoch start = 46281510, turn = 0, subTurn = 1
info: Processing req at 46281510
info: nextReqEvent scheduled@46306510
info: Epoch start = 46331510, turn = 0, subTurn = 2
info: Processing req at 46331510
info: nextReqEvent scheduled@46356510
info: Epoch start = 46381510, turn = 0, subTurn = 0
info: Processing req at 46381510
info: Activate at tick 46381511
info: Precharging bank 6, rank 7 at tick 46416511, now got 0 active
info: nextReqEvent scheduled@46406510
info: Epoch start = 46431510, turn = 0, subTurn = 1
info: Processing req at 46431510
info: nextReqEvent scheduled@46456510
info: Epoch start = 46481510, turn = 0, subTurn = 2
info: Processing req at 46481510
info: nextReqEvent scheduled@46506510
info: Epoch start = 46531510, turn = 0, subTurn = 0
info: Processing req at 46531510
info: Activate at tick 46531511
info: Precharging bank 6, rank 7 at tick 46566511, now got 0 active
info: nextReqEvent scheduled@46556510
info: Epoch start = 46581510, turn = 0, subTurn = 1
info: Processing req at 46581510
info: nextReqEvent scheduled@46606510
info: Epoch start = 46631510, turn = 0, subTurn = 2
info: Processing req at 46631510
info: Epoch start = 46681510, turn = 0, subTurn = 0
info: nextReqEvent scheduled@46706510
info: Epoch start = 46731510, turn = 0, subTurn = 1
info: Processing req at 46731510
info: nextReqEvent scheduled@46756510
info: Epoch start = 46781510, turn = 0, subTurn = 2
info: Processing req at 46781510
info: Epoch start = 46831510, turn = 0, subTurn = 0
info: nextReqEvent scheduled@46856510
info: Epoch start = 46881510, turn = 0, subTurn = 1
info: Processing req at 46881510
info: nextReqEvent scheduled@46906510
info: Epoch start = 46931510, turn = 0, subTurn = 2
info: Processing req at 46931510
info: Epoch start = 46981510, turn = 0, subTurn = 0
info: nextReqEvent scheduled@47006510
info: Epoch start = 47031510, turn = 0, subTurn = 1
info: Processing req at 47031510
info: Timing access to addr 4631936, rank/bank/row 6 5 8
info: Activate at tick 47031511
info: Precharging bank 5, rank 6 at tick 47066511, now got 0 active
info: nextReqEvent scheduled@47056510
info: Timing access to addr 1759563008, rank/bank/row 0 6 3356
info: Epoch start = 47081510, turn = 0, subTurn = 2
info: Processing req at 47081510
info: nextReqEvent scheduled@47106510
info: Epoch start = 47131510, turn = 0, subTurn = 0
info: Processing req at 47131510
info: Activate at tick 47131510
info: Precharging bank 6, rank 6 at tick 47166510, now got 0 active
info: nextReqEvent scheduled@47156510
info: Epoch start = 47181510, turn = 0, subTurn = 1
info: Processing req at 47181510
info: nextReqEvent scheduled@47206510
info: Epoch start = 47231510, turn = 0, subTurn = 2
info: Processing req at 47231510
info: nextReqEvent scheduled@47256510
info: Epoch start = 47281510, turn = 0, subTurn = 0
info: Processing req at 47281510
info: Activate at tick 47281511
info: Precharging bank 6, rank 6 at tick 47316511, now got 0 active
info: nextReqEvent scheduled@47306510
info: Epoch start = 47331510, turn = 0, subTurn = 1
info: Processing req at 47331510
info: nextReqEvent scheduled@47356510
info: Epoch start = 47381510, turn = 0, subTurn = 2
info: Processing req at 47381510
info: nextReqEvent scheduled@47406510
info: Epoch start = 47431510, turn = 0, subTurn = 0
info: Processing req at 47431510
info: Activate at tick 47431511
info: Precharging bank 6, rank 7 at tick 47466511, now got 0 active
info: nextReqEvent scheduled@47456510
info: Epoch start = 47481510, turn = 0, subTurn = 1
info: Processing req at 47481510
info: nextReqEvent scheduled@47506510
info: Epoch start = 47531510, turn = 0, subTurn = 2
info: Processing req at 47531510
info: nextReqEvent scheduled@47556510
info: Epoch start = 47581510, turn = 0, subTurn = 0
info: Processing req at 47581510
info: Activate at tick 47581511
info: Precharging bank 6, rank 7 at tick 47616511, now got 0 active
info: nextReqEvent scheduled@47606510
info: Epoch start = 47631510, turn = 0, subTurn = 1
[...]
info: nextReqEvent scheduled@246056510
info: Epoch start = 246081510, turn = 0, subTurn = 1
info: Processing req at 246081510
info: nextReqEvent scheduled@246106510
info: Epoch start = 246131510, turn = 0, subTurn = 2
info: Processing req at 246131510
WARNING: Command issued while in power-down mode.
Command: 0, Timestamp: 170453, Bank: 0
WARNING: Command issued while in power-down mode.
Command: 0, Timestamp: 170813, Bank: 0
WARNING: Command issued while in power-down mode.
Command: 0, Timestamp: 171893, Bank: 0
WARNING: Command issued while in power-down mode.
Command: 0, Timestamp: 172253, Bank: 0
WARNING: Command issued while in power-down mode.
Command: 0, Timestamp: 172973, Bank: 0
WARNING: Command issued while in power-down mode.
Command: 0, Timestamp: 173453, Bank: 0
WARNING: Command issued while in power-down mode.
Command: 0, Timestamp: 175613, Bank: 0
info: Epoch start = 246181510, turn = 0, subTurn = 0
info: Processing req at 246181510
info: Timing access to addr 2033664, rank/bank/row 7 0 3
info: Activate at tick 246181511
info: Precharging bank 0, rank 7 at tick 246216511, now got 0 active
info: nextReqEvent scheduled@246206510
info: no packet
info: Epoch start = 246231510, turn = 0, subTurn = 1
info: Processing req at 246231510
info: no packet
info: nextReqEvent scheduled@246256510
info: no packet
info: Epoch start = 246281510, turn = 0, subTurn = 2
info: Processing req at 246281510
info: Timing access to addr 4647936, rank/bank/row 6 7 8
info: Activate at tick 246281511
info: Precharging bank 7, rank 6 at tick 246316511, now got 0 active
info: nextReqEvent scheduled@246306510
info: no packet
info: Epoch start = 246331510, turn = 0, subTurn = 0
info: Processing req at 246331510
info: Timing access to addr 2033728, rank/bank/row 7 0 3
info: Activate at tick 246331510
info: Precharging bank 0, rank 7 at tick 246366510, now got 0 active
info: nextReqEvent scheduled@246356510
info: Epoch start = 246381510, turn = 0, subTurn = 1
info: Processing req at 246381510
info: nextReqEvent scheduled@246406510
info: Epoch start = 246431510, turn = 0, subTurn = 2
info: Processing req at 246431510
info: Timing access to addr 4648000, rank/bank/row 6 7 8
info: Activate at tick 246431511
info: Precharging bank 7, rank 6 at tick 246466511, now got 0 active
info: nextReqEvent scheduled@246456510
info: Epoch start = 246481510, turn = 0, subTurn = 0
info: Processing req at 246481510
info: nextReqEvent scheduled@246506510
info: Epoch start = 246531510, turn = 0, subTurn = 1
info: Processing req at 246531510
info: no packet
info: nextReqEvent scheduled@246556510
info: Timing access to addr 1759644800, rank/bank/row 2 0 3356
info: Epoch start = 246581510, turn = 0, subTurn = 2
info: Processing req at 246581510
info: Activate at tick 246581511
info: Precharging bank 1, rank 0 at tick 246616511, now got 0 active
info: nextReqEvent scheduled@246606510
info: Epoch start = 246631510, turn = 0, subTurn = 0
info: nextReqEvent scheduled@246656510
info: Epoch start = 246681510, turn = 0, subTurn = 1
info: Processing req at 246681510
info: no packet
info: nextReqEvent scheduled@246706510
info: Timing access to addr 1759644864, rank/bank/row 2 0 3356
info: Epoch start = 246731510, turn = 0, subTurn = 2
info: Processing req at 246731510
info: Activate at tick 246731511
info: Precharging bank 1, rank 0 at tick 246766511, now got 0 active
info: nextReqEvent scheduled@246756510
info: Epoch start = 246781510, turn = 0, subTurn = 0
info: nextReqEvent scheduled@246806510
info: Epoch start = 246831510, turn = 0, subTurn = 1
info: Processing req at 246831510
info: no packet
info: nextReqEvent scheduled@246856510
info: Timing access to addr 1759644928, rank/bank/row 2 0 3356
info: Epoch start = 246881510, turn = 0, subTurn = 2
info: Processing req at 246881510
info: Activate at tick 246881511
info: Precharging bank 1, rank 0 at tick 246916511, now got 0 active
info: nextReqEvent scheduled@246906510
info: Epoch start = 246931510, turn = 0, subTurn = 0
info: nextReqEvent scheduled@246956510
info: Epoch start = 246981510, turn = 0, subTurn = 1
info: Processing req at 246981510
info: nextReqEvent scheduled@247006510
info: Epoch start = 247031510, turn = 0, subTurn = 2
info: Processing req at 247031510
info: Epoch start = 247081510, turn = 0, subTurn = 0
info: nextReqEvent scheduled@247106510
info: Epoch start = 247131510, turn = 0, subTurn = 1
info: Processing req at 247131510
info: nextReqEvent scheduled@247156510
info: Epoch start = 247181510, turn = 0, subTurn = 2
info: Processing req at 247181510
info: Epoch start = 247231510, turn = 0, subTurn = 0
info: nextReqEvent scheduled@247256510
info: Epoch start = 247281510, turn = 0, subTurn = 1
info: Processing req at 247281510
info: nextReqEvent scheduled@247306510
info: Epoch start = 247331510, turn = 0, subTurn = 2
info: Processing req at 247331510
info: Epoch start = 247381510, turn = 0, subTurn = 0
info: Processing req at 247381510
info: no packet
info: nextReqEvent scheduled@247406510
info: no packet
info: Epoch start = 247431510, turn = 0, subTurn = 1
info: Processing req at 247431510
info: no packet
info: nextReqEvent scheduled@247456510
info: Timing access to addr 1759645184, rank/bank/row 2 0 3356
info: Epoch start = 247481510, turn = 0, subTurn = 2
info: Processing req at 247481510
info: Timing access to addr 4648064, rank/bank/row 6 7 8
info: Activate at tick 247481511
info: Precharging bank 7, rank 6 at tick 247516511, now got 0 active
info: nextReqEvent scheduled@247506510
info: Epoch start = 247531510, turn = 0, subTurn = 0
info: Processing req at 247531510
info: nextReqEvent scheduled@247556510
info: no packet
info: Epoch start = 247581510, turn = 0, subTurn = 1
info: Processing req at 247581510
info: no packet
info: nextReqEvent scheduled@247606510
info: Timing access to addr 1759645248, rank/bank/row 2 0 3356
info: Epoch start = 247631510, turn = 0, subTurn = 2
info: Processing req at 247631510
info: nextReqEvent scheduled@247656510
info: Epoch start = 247681510, turn = 0, subTurn = 0
info: Processing req at 247681510
info: Activate at tick 247681510
info: Precharging bank 0, rank 7 at tick 247716510, now got 0 active
info: nextReqEvent scheduled@247706510
info: Epoch start = 247731510, turn = 0, subTurn = 1
info: Processing req at 247731510
info: nextReqEvent scheduled@247756510
info: Epoch start = 247781510, turn = 0, subTurn = 2
info: Processing req at 247781510
info: nextReqEvent scheduled@247806510
info: Epoch start = 247831510, turn = 0, subTurn = 0
info: Processing req at 247831510
info: Activate at tick 247831511
info: Precharging bank 0, rank 7 at tick 247866511, now got 0 active
info: nextReqEvent scheduled@247856510
info: Epoch start = 247881510, turn = 0, subTurn = 1
info: Processing req at 247881510
info: nextReqEvent scheduled@247906510
info: Epoch start = 247931510, turn = 0, subTurn = 2
info: Processing req at 247931510
info: Activate at tick 247931511
info: Precharging bank 1, rank 0 at tick 247966511, now got 0 active
info: nextReqEvent scheduled@247956510
info: Epoch start = 247981510, turn = 0, subTurn = 0
info: nextReqEvent scheduled@248006510
info: Epoch start = 248031510, turn = 0, subTurn = 1
info: Processing req at 248031510
info: nextReqEvent scheduled@248056510
info: Timing access to addr 1759645440, rank/bank/row 2 0 3356
info: Epoch start = 248081510, turn = 0, subTurn = 2
info: Processing req at 248081510
info: Activate at tick 248081511
info: Precharging bank 1, rank 0 at tick 248116511, now got 0 active
info: nextReqEvent scheduled@248106510
info: Epoch start = 248131510, turn = 0, subTurn = 0
info: nextReqEvent scheduled@248156510
info: Epoch start = 248181510, turn = 0, subTurn = 1
info: Processing req at 248181510
info: no packet
info: nextReqEvent scheduled@248206510
info: Timing access to addr 1759645504, rank/bank/row 2 0 3356
info: Epoch start = 248231510, turn = 0, subTurn = 2
info: Processing req at 248231510
info: Activate at tick 248231511
info: Precharging bank 1, rank 0 at tick 248266511, now got 0 active
info: nextReqEvent scheduled@248256510
info: Epoch start = 248281510, turn = 0, subTurn = 0
info: nextReqEvent scheduled@248306510
info: Epoch start = 248331510, turn = 0, subTurn = 1
info: Processing req at 248331510
info: nextReqEvent scheduled@248356510
info: Epoch start = 248381510, turn = 0, subTurn = 2
info: Processing req at 248381510
info: Epoch start = 248431510, turn = 0, subTurn = 0
info: nextReqEvent scheduled@248456510
info: Epoch start = 248481510, turn = 0, subTurn = 1
info: Processing req at 248481510
info: nextReqEvent scheduled@248506510
info: Epoch start = 248531510, turn = 0, subTurn = 2
info: Processing req at 248531510
info: Epoch start = 248581510, turn = 0, subTurn = 0
info: nextReqEvent scheduled@248606510
info: Epoch start = 248631510, turn = 0, subTurn = 1
info: Processing req at 248631510
info: nextReqEvent scheduled@248656510
info: Epoch start = 248681510, turn = 0, subTurn = 2
info: Processing req at 248681510
info: Epoch start = 248731510, turn = 0, subTurn = 0
info: Processing req at 248731510
info: Timing access to addr 2033920, rank/bank/row 7 0 3
info: Activate at tick 248731511
info: Precharging bank 0, rank 7 at tick 248766511, now got 0 active
info: nextReqEvent scheduled@248756510
info: no packet
info: Epoch start = 248781510, turn = 0, subTurn = 1
info: Processing req at 248781510
info: no packet
info: nextReqEvent scheduled@248806510
info: Timing access to addr 1759645760, rank/bank/row 2 0 3356
info: Epoch start = 248831510, turn = 0, subTurn = 2
info: Processing req at 248831510
info: Timing access to addr 4648128, rank/bank/row 6 7 8
info: Activate at tick 248831511
info: Precharging bank 7, rank 6 at tick 248866511, now got 0 active
info: nextReqEvent scheduled@248856510
info: Epoch start = 248881510, turn = 0, subTurn = 0
info: Processing req at 248881510
info: nextReqEvent scheduled@248906510
info: no packet
info: Epoch start = 248931510, turn = 0, subTurn = 1
info: Processing req at 248931510
info: no packet
info: nextReqEvent scheduled@248956510
info: Timing access to addr 1759645824, rank/bank/row 2 0 3356
info: Epoch start = 248981510, turn = 0, subTurn = 2
info: Processing req at 248981510
info: Activate at tick 248981510
info: Precharging bank 7, rank 6 at tick 249016510, now got 0 active
info: nextReqEvent scheduled@249006510
info: Epoch start = 249031510, turn = 0, subTurn = 0
info: nextReqEvent scheduled@249056510
info: Epoch start = 249081510, turn = 0, subTurn = 1
info: Processing req at 249081510
info: no packet
info: nextReqEvent scheduled@249106510
info: Timing access to addr 1759645888, rank/bank/row 2 0 3356
info: Epoch start = 249131510, turn = 0, subTurn = 2
info: Processing req at 249131510
info: Activate at tick 249131511
info: Precharging bank 1, rank 0 at tick 249166511, now got 0 active
info: nextReqEvent scheduled@249156510
info: Epoch start = 249181510, turn = 0, subTurn = 0
info: nextReqEvent scheduled@249206510
info: Epoch start = 249231510, turn = 0, subTurn = 1
info: Processing req at 249231510
info: no packet
info: nextReqEvent scheduled@249256510
info: Timing access to addr 1759645952, rank/bank/row 2 0 3356
info: Epoch start = 249281510, turn = 0, subTurn = 2
info: Processing req at 249281510
info: Activate at tick 249281511
info: Precharging bank 1, rank 0 at tick 249316511, now got 0 active
info: nextReqEvent scheduled@249306510
info: Epoch start = 249331510, turn = 0, subTurn = 0
info: nextReqEvent scheduled@249356510
info: Epoch start = 249381510, turn = 0, subTurn = 1
info: Processing req at 249381510
info: no packet
info: nextReqEvent scheduled@249406510
info: Timing access to addr 1759646016, rank/bank/row 2 0 3356
info: Epoch start = 249431510, turn = 0, subTurn = 2
info: Processing req at 249431510
info: Activate at tick 249431511
info: Precharging bank 1, rank 0 at tick 249466511, now got 0 active
info: nextReqEvent scheduled@249456510
info: Epoch start = 249481510, turn = 0, subTurn = 0
info: nextReqEvent scheduled@249506510
info: Epoch start = 249531510, turn = 0, subTurn = 1
info: Processing req at 249531510
info: nextReqEvent scheduled@249556510
info: Epoch start = 249581510, turn = 0, subTurn = 2
info: Processing req at 249581510
info: Epoch start = 249631510, turn = 0, subTurn = 0
info: nextReqEvent scheduled@249656510
info: Epoch start = 249681510, turn = 0, subTurn = 1
info: Processing req at 249681510
info: nextReqEvent scheduled@249706510
info: Epoch start = 249731510, turn = 0, subTurn = 2
info: Processing req at 249731510
info: Epoch start = 249781510, turn = 0, subTurn = 0
info: nextReqEvent scheduled@249806510
info: Epoch start = 249831510, turn = 0, subTurn = 1
info: Processing req at 249831510
info: nextReqEvent scheduled@249856510
info: Epoch start = 249881510, turn = 0, subTurn = 2
info: Processing req at 249881510
info: Epoch start = 249931510, turn = 0, subTurn = 0
info: Processing req at 249931510
info: Timing access to addr 2033984, rank/bank/row 7 0 3
info: Activate at tick 249931511
info: Precharging bank 0, rank 7 at tick 249966511, now got 0 active
info: nextReqEvent scheduled@249956510
info: no packet
info: Epoch start = 249981510, turn = 0, subTurn = 1
info: Processing req at 249981510
info: no packet
info: nextReqEvent scheduled@250006510
info: Timing access to addr 1759646272, rank/bank/row 2 0 3356
info: Epoch start = 250031510, turn = 0, subTurn = 2
info: Processing req at 250031510
info: Timing access to addr 4648256, rank/bank/row 6 7 8
info: Activate at tick 250031511
info: Precharging bank 7, rank 6 at tick 250066511, now got 0 active
info: nextReqEvent scheduled@250056510
info: Epoch start = 250081510, turn = 0, subTurn = 0
info: Processing req at 250081510
info: Activate at tick 250081510
info: Precharging bank 0, rank 7 at tick 250116510, now got 0 active
info: nextReqEvent scheduled@250106510
info: Epoch start = 250131510, turn = 0, subTurn = 1
info: Processing req at 250131510
info: nextReqEvent scheduled@250156510
info: Epoch start = 250181510, turn = 0, subTurn = 2
info: Processing req at 250181510
info: nextReqEvent scheduled@250206510
info: Epoch start = 250231510, turn = 0, subTurn = 0
info: Processing req at 250231510
info: nextReqEvent scheduled@250256510
info: no packet
info: Epoch start = 250281510, turn = 0, subTurn = 1
info: Processing req at 250281510
info: no packet
info: nextReqEvent scheduled@250306510
info: Timing access to addr 1759646400, rank/bank/row 2 0 3356
info: Epoch start = 250331510, turn = 0, subTurn = 2
info: Processing req at 250331510
info: nextReqEvent scheduled@250356510
info: Epoch start = 250381510, turn = 0, subTurn = 0
info: Processing req at 250381510
info: nextReqEvent scheduled@250406510
info: no packet
info: Epoch start = 250431510, turn = 0, subTurn = 1
info: Processing req at 250431510
info: no packet
info: nextReqEvent scheduled@250456510
info: Timing access to addr 1759646464, rank/bank/row 2 0 3356
info: Epoch start = 250481510, turn = 0, subTurn = 2
info: Processing req at 250481510
info: Activate at tick 250481510
info: Precharging bank 1, rank 0 at tick 250516510, now got 0 active
info: nextReqEvent scheduled@250506510
info: Epoch start = 250531510, turn = 0, subTurn = 0
info: nextReqEvent scheduled@250556510
info: Epoch start = 250581510, turn = 0, subTurn = 1
info: Processing req at 250581510
info: Timing access to addr 2009216, rank/bank/row 6 5 3
info: Activate at tick 250581511
info: Precharging bank 5, rank 6 at tick 250616511, now got 0 active
info: nextReqEvent scheduled@250606510
info: Timing access to addr 1759646528, rank/bank/row 2 0 3356
info: Epoch start = 250631510, turn = 0, subTurn = 2
info: Processing req at 250631510
info: Activate at tick 250631511
info: Precharging bank 1, rank 0 at tick 250666511, now got 0 active
info: nextReqEvent scheduled@250656510
info: Epoch start = 250681510, turn = 0, subTurn = 0
info: nextReqEvent scheduled@250706510
info: Epoch start = 250731510, turn = 0, subTurn = 1
info: Processing req at 250731510
info: no packet
info: nextReqEvent scheduled@250756510
info: Timing access to addr 1759646592, rank/bank/row 2 0 3356
info: Epoch start = 250781510, turn = 0, subTurn = 2
info: Processing req at 250781510
info: Activate at tick 250781511
info: Precharging bank 1, rank 0 at tick 250816511, now got 0 active
info: nextReqEvent scheduled@250806510
info: Epoch start = 250831510, turn = 0, subTurn = 0
info: nextReqEvent scheduled@250856510
info: Epoch start = 250881510, turn = 0, subTurn = 1
info: Processing req at 250881510
info: nextReqEvent scheduled@250906510
info: Epoch start = 250931510, turn = 0, subTurn = 2
info: Processing req at 250931510
info: Epoch start = 250981510, turn = 0, subTurn = 0
info: nextReqEvent scheduled@251006510
info: Epoch start = 251031510, turn = 0, subTurn = 1
info: Processing req at 251031510
info: nextReqEvent scheduled@251056510
info: Epoch start = 251081510, turn = 0, subTurn = 2
info: Processing req at 251081510
info: Epoch start = 251131510, turn = 0, subTurn = 0
info: nextReqEvent scheduled@251156510
info: Epoch start = 251181510, turn = 0, subTurn = 1
info: Processing req at 251181510
info: nextReqEvent scheduled@251206510
info: Epoch start = 251231510, turn = 0, subTurn = 2
info: Processing req at 251231510
info: Epoch start = 251281510, turn = 0, subTurn = 0
info: Processing req at 251281510
info: Timing access to addr 2034112, rank/bank/row 7 0 3
info: Activate at tick 251281511
info: Precharging bank 0, rank 7 at tick 251316511, now got 0 active
info: nextReqEvent scheduled@251306510
info: no packet
info: Epoch start = 251331510, turn = 0, subTurn = 1
info: Processing req at 251331510
info: no packet
info: nextReqEvent scheduled@251356510
info: Timing access to addr 1759646848, rank/bank/row 2 0 3356
info: Epoch start = 251381510, turn = 0, subTurn = 2
info: Processing req at 251381510
info: Timing access to addr 4648320, rank/bank/row 6 7 8
info: Activate at tick 251381511
info: Precharging bank 7, rank 6 at tick 251416511, now got 0 active
info: nextReqEvent scheduled@251406510
info: Epoch start = 251431510, turn = 0, subTurn = 0
info: Processing req at 251431510
info: nextReqEvent scheduled@251456510
info: no packet
info: Epoch start = 251481510, turn = 0, subTurn = 1
info: Processing req at 251481510
info: no packet
info: nextReqEvent scheduled@251506510
info: Timing access to addr 1759646912, rank/bank/row 2 0 3356
info: Epoch start = 251531510, turn = 0, subTurn = 2
info: Processing req at 251531510
info: Activate at tick 251531510
info: Precharging bank 7, rank 6 at tick 251566510, now got 0 active
info: nextReqEvent scheduled@251556510
info: Epoch start = 251581510, turn = 0, subTurn = 0
info: nextReqEvent scheduled@251606510
info: Epoch start = 251631510, turn = 0, subTurn = 1
info: Processing req at 251631510
info: no packet
info: nextReqEvent scheduled@251656510
info: Timing access to addr 1759646976, rank/bank/row 2 0 3356
info: Epoch start = 251681510, turn = 0, subTurn = 2
info: Processing req at 251681510
info: Activate at tick 251681511
info: Precharging bank 1, rank 0 at tick 251716511, now got 0 active
info: nextReqEvent scheduled@251706510
info: Epoch start = 251731510, turn = 0, subTurn = 0
Exiting core 1 @ tick 251735500 because a thread reached the max instruction count
WARNING: Command issued while in power-down mode.
Command: 0, Timestamp: 179953, Bank: 1
WARNING: Command issued while in power-down mode.
Command: 0, Timestamp: 176693, Bank: 0
WARNING: Command issued while in power-down mode.
Command: 0, Timestamp: 176933, Bank: 0
WARNING: Command issued while in power-down mode.
Command: 0, Timestamp: 177413, Bank: 0
WARNING: Command issued while in power-down mode.
Command: 0, Timestamp: 177653, Bank: 0
WARNING: Command issued while in power-down mode.
Command: 0, Timestamp: 179813, Bank: 0
WARNING: Command issued while in power-down mode.
Command: 0, Timestamp: 180293, Bank: 0
Exiting @ tick 251735500 because a thread reached the max instruction count
